lig_0000
     RDKit          3D

 12 12  0  0  0  0  0  0  0  0999 V2000
   -0.3032   -1.3614   -0.0088 C   0  0  0  0  0  0  0  0  0  0  0  0
   -1.3305   -0.4183    0.0150 C   0  0  0  0  0  0  0  0  0  0  0  0
   -1.0274    0.9431    0.0238 C   0  0  0  0  0  0  0  0  0  0  0  0
    0.3032    1.3614    0.0088 C   0  0  0  0  0  0  0  0  0  0  0  0
    1.3305    0.4183   -0.0150 C   0  0  0  0  0  0  0  0  0  0  0  0
    1.0274   -0.9431   -0.0238 C   0  0  0  0  0  0  0  0  0  0  0  0
   -0.5394   -2.4222   -0.0157 H   0  0  0  0  0  0  0  0  0  0  0  0
   -2.3672   -0.7442    0.0266 H   0  0  0  0  0  0  0  0  0  0  0  0
   -1.8278    1.6779    0.0423 H   0  0  0  0  0  0  0  0  0  0  0  0
    0.5394    2.4222    0.0157 H   0  0  0  0  0  0  0  0  0  0  0  0
    2.3672    0.7442   -0.0266 H   0  0  0  0  0  0  0  0  0  0  0  0
    1.8278   -1.6779   -0.0423 H   0  0  0  0  0  0  0  0  0  0  0  0
  1  2  1  0
  2  3  2  0
  3  4  1  0
  4  5  2  0
  5  6  1  0
  6  1  2  0
  1  7  1  0
  2  8  1  0
  3  9  1  0
  4 10  1  0
  5 11  1  0
  6 12  1  0
M  END
>  <ofe-name>  (1) 
lig_0000

$$$$
lig_0001
     RDKit          3D

 15 15  0  0  0  0  0  0  0  0999 V2000
    0.0648   -1.1876   -0.2062 C   0  0  0  0  0  0  0  0  0  0  0  0
   -1.3295   -1.2419   -0.2471 C   0  0  0  0  0  0  0  0  0  0  0  0
   -2.0789   -0.0803   -0.0708 C   0  0  0  0  0  0  0  0  0  0  0  0
   -1.4349    1.1355    0.1508 C   0  0  0  0  0  0  0  0  0  0  0  0
   -0.0406    1.1911    0.1919 C   0  0  0  0  0  0  0  0  0  0  0  0
    0.7214    0.0318    0.0012 C   0  0  0  0  0  0  0  0  0  0  0  0
    2.2182    0.0851    0.0790 C   0  0  0  0  0  0  0  0  0  0  0  0
    0.6364   -2.1034   -0.3380 H   0  0  0  0  0  0  0  0  0  0  0  0
   -1.8306   -2.1917   -0.4138 H   0  0  0  0  0  0  0  0  0  0  0  0
   -3.1643   -0.1232   -0.1019 H   0  0  0  0  0  0  0  0  0  0  0  0
   -2.0183    2.0410    0.2946 H   0  0  0  0  0  0  0  0  0  0  0  0
    0.4481    2.1456    0.3731 H   0  0  0  0  0  0  0  0  0  0  0  0
    2.5931    1.0543   -0.2667 H   0  0  0  0  0  0  0  0  0  0  0  0
    2.6701   -0.6830   -0.5574 H   0  0  0  0  0  0  0  0  0  0  0  0
    2.5451   -0.0731    1.1113 H   0  0  0  0  0  0  0  0  0  0  0  0
  1  2  1  0
  2  3  2  0
  3  4  1  0
  4  5  2  0
  5  6  1  0
  6  7  1  0
  6  1  2  0
  1  8  1  0
  2  9  1  0
  3 10  1  0
  4 11  1  0
  5 12  1  0
  7 13  1  0
  7 14  1  0
  7 15  1  0
M  END
>  <ofe-name>  (2) 
lig_0001

$$$$
lig_0002
     RDKit          3D

 18 18  0  0  0  0  0  0  0  0999 V2000
   -0.4389   -1.0410   -0.7210 C   0  0  0  0  0  0  0  0  0  0  0  0
   -1.7942   -1.2807   -0.4881 C   0  0  0  0  0  0  0  0  0  0  0  0
   -2.5755   -0.3152    0.1440 C   0  0  0  0  0  0  0  0  0  0  0  0
   -2.0020    0.8898    0.5457 C   0  0  0  0  0  0  0  0  0  0  0  0
   -0.6470    1.1311    0.3136 C   0  0  0  0  0  0  0  0  0  0  0  0
    0.1460    0.1699   -0.3273 C   0  0  0  0  0  0  0  0  0  0  0  0
    1.6131    0.4225   -0.5628 C   0  0  0  0  0  0  0  0  0  0  0  0
    2.4635   -0.0525    0.6054 C   0  0  0  0  0  0  0  0  0  0  0  0
    0.1593   -1.8055   -1.2113 H   0  0  0  0  0  0  0  0  0  0  0  0
   -2.2398   -2.2219   -0.7988 H   0  0  0  0  0  0  0  0  0  0  0  0
   -3.6303   -0.5027    0.3255 H   0  0  0  0  0  0  0  0  0  0  0  0
   -2.6098    1.6419    1.0415 H   0  0  0  0  0  0  0  0  0  0  0  0
   -0.2122    2.0742    0.6365 H   0  0  0  0  0  0  0  0  0  0  0  0
    1.9314   -0.0829   -1.4827 H   0  0  0  0  0  0  0  0  0  0  0  0
    1.7805    1.4932   -0.7320 H   0  0  0  0  0  0  0  0  0  0  0  0
    3.5220    0.1434    0.4070 H   0  0  0  0  0  0  0  0  0  0  0  0
    2.1906    0.4644    1.5317 H   0  0  0  0  0  0  0  0  0  0  0  0
    2.3431   -1.1281    0.7731 H   0  0  0  0  0  0  0  0  0  0  0  0
  1  2  1  0
  2  3  2  0
  3  4  1  0
  4  5  2  0
  5  6  1  0
  6  7  1  0
  7  8  1  0
  6  1  2  0
  1  9  1  0
  2 10  1  0
  3 11  1  0
  4 12  1  0
  5 13  1  0
  7 14  1  0
  7 15  1  0
  8 16  1  0
  8 17  1  0
  8 18  1  0
M  END
>  <ofe-name>  (3) 
lig_0002

$$$$
lig_0003
     RDKit          3D

 21 21  0  0  0  0  0  0  0  0999 V2000
   -1.0897   -0.9243   -0.7833 C   0  0  0  0  0  0  0  0  0  0  0  0
   -2.2868   -0.3450   -1.2068 C   0  0  0  0  0  0  0  0  0  0  0  0
   -2.8128    0.7494   -0.5231 C   0  0  0  0  0  0  0  0  0  0  0  0
   -2.1424    1.2650    0.5843 C   0  0  0  0  0  0  0  0  0  0  0  0
   -0.9451    0.6866    1.0093 C   0  0  0  0  0  0  0  0  0  0  0  0
   -0.4067   -0.4140    0.3293 C   0  0  0  0  0  0  0  0  0  0  0  0
    0.8906   -1.0368    0.7830 C   0  0  0  0  0  0  0  0  0  0  0  0
    2.0769   -0.7306   -0.1360 C   0  0  0  0  0  0  0  0  0  0  0  0
    2.4874    0.7353   -0.1167 C   0  0  0  0  0  0  0  0  0  0  0  0
   -0.6915   -1.7784   -1.3263 H   0  0  0  0  0  0  0  0  0  0  0  0
   -2.8088   -0.7481   -2.0705 H   0  0  0  0  0  0  0  0  0  0  0  0
   -3.7447    1.2003   -0.8533 H   0  0  0  0  0  0  0  0  0  0  0  0
   -2.5514    2.1189    1.1178 H   0  0  0  0  0  0  0  0  0  0  0  0
   -0.4330    1.1031    1.8736 H   0  0  0  0  0  0  0  0  0  0  0  0
    1.1238   -0.7197    1.8073 H   0  0  0  0  0  0  0  0  0  0  0  0
    0.7482   -2.1241    0.8347 H   0  0  0  0  0  0  0  0  0  0  0  0
    2.9329   -1.3328    0.1918 H   0  0  0  0  0  0  0  0  0  0  0  0
    1.8552   -1.0306   -1.1669 H   0  0  0  0  0  0  0  0  0  0  0  0
    2.7114    1.0671    0.9021 H   0  0  0  0  0  0  0  0  0  0  0  0
    1.7010    1.3773   -0.5249 H   0  0  0  0  0  0  0  0  0  0  0  0
    3.3855    0.8816   -0.7253 H   0  0  0  0  0  0  0  0  0  0  0  0
  1  2  1  0
  2  3  2  0
  3  4  1  0
  4  5  2  0
  5  6  1  0
  6  7  1  0
  7  8  1  0
  8  9  1  0
  6  1  2  0
  1 10  1  0
  2 11  1  0
  3 12  1  0
  4 13  1  0
  5 14  1  0
  7 15  1  0
  7 16  1  0
  8 17  1  0
  8 18  1  0
  9 19  1  0
  9 20  1  0
  9 21  1  0
M  END
>  <ofe-name>  (4) 
lig_0003

$$$$
lig_0004
     RDKit          3D

 13 13  0  0  0  0  0  0  0  0999 V2000
    0.0309   -1.2564   -0.4839 C   0  0  0  0  0  0  0  0  0  0  0  0
   -1.2973   -0.8617   -0.3254 C   0  0  0  0  0  0  0  0  0  0  0  0
   -1.5920    0.4107    0.1659 C   0  0  0  0  0  0  0  0  0  0  0  0
   -0.5583    1.2880    0.4986 C   0  0  0  0  0  0  0  0  0  0  0  0
    0.7718    0.8948    0.3407 C   0  0  0  0  0  0  0  0  0  0  0  0
    1.0547   -0.3767   -0.1502 C   0  0  0  0  0  0  0  0  0  0  0  0
    2.3389   -0.8027   -0.3205 O   0  0  0  0  0  0  0  0  0  0  0  0
    0.2669   -2.2453   -0.8657 H   0  0  0  0  0  0  0  0  0  0  0  0
   -2.1008   -1.5457   -0.5848 H   0  0  0  0  0  0  0  0  0  0  0  0
   -2.6272    0.7183    0.2894 H   0  0  0  0  0  0  0  0  0  0  0  0
   -0.7909    2.2785    0.8811 H   0  0  0  0  0  0  0  0  0  0  0  0
    1.5651    1.5870    0.6033 H   0  0  0  0  0  0  0  0  0  0  0  0
    2.9383   -0.0888   -0.0486 H   0  0  0  0  0  0  0  0  0  0  0  0
  1  2  1  0
  2  3  2  0
  3  4  1  0
  4  5  2  0
  5  6  1  0
  6  7  1  0
  6  1  2  0
  1  8  1  0
  2  9  1  0
  3 10  1  0
  4 11  1  0
  5 12  1  0
  7 13  1  0
M  END
>  <ofe-name>  (5) 
lig_0004

$$$$
lig_0005
     RDKit          3D

 16 16  0  0  0  0  0  0  0  0999 V2000
    0.0802   -1.1792    0.3135 C   0  0  0  0  0  0  0  0  0  0  0  0
    1.4639   -1.2652    0.1527 C   0  0  0  0  0  0  0  0  0  0  0  0
    2.2092   -0.1163   -0.1065 C   0  0  0  0  0  0  0  0  0  0  0  0
    1.5721    1.1190   -0.2090 C   0  0  0  0  0  0  0  0  0  0  0  0
    0.1884    1.2072   -0.0485 C   0  0  0  0  0  0  0  0  0  0  0  0
   -0.5688    0.0599    0.2251 C   0  0  0  0  0  0  0  0  0  0  0  0
   -2.0643    0.1489    0.3642 C   0  0  0  0  0  0  0  0  0  0  0  0
   -2.6958   -0.0141   -0.8986 O   0  0  0  0  0  0  0  0  0  0  0  0
   -0.4908   -2.0850    0.5074 H   0  0  0  0  0  0  0  0  0  0  0  0
    1.9605   -2.2293    0.2274 H   0  0  0  0  0  0  0  0  0  0  0  0
    3.2868   -0.1842   -0.2318 H   0  0  0  0  0  0  0  0  0  0  0  0
    2.1529    2.0141   -0.4164 H   0  0  0  0  0  0  0  0  0  0  0  0
   -0.2975    2.1766   -0.1392 H   0  0  0  0  0  0  0  0  0  0  0  0
   -2.4388   -0.6239    1.0438 H   0  0  0  0  0  0  0  0  0  0  0  0
   -2.3598    1.1181    0.7795 H   0  0  0  0  0  0  0  0  0  0  0  0
   -1.9983   -0.1466   -1.5637 H   0  0  0  0  0  0  0  0  0  0  0  0
  1  2  1  0
  2  3  2  0
  3  4  1  0
  4  5  2  0
  5  6  1  0
  6  7  1  0
  7  8  1  0
  6  1  2  0
  1  9  1  0
  2 10  1  0
  3 11  1  0
  4 12  1  0
  5 13  1  0
  7 14  1  0
  7 15  1  0
  8 16  1  0
M  END
>  <ofe-name>  (6) 
lig_0005

$$$$
lig_0006
     RDKit          3D

 14 14  0  0  0  0  0  0  0  0999 V2000
    0.1940   -1.0754   -0.5441 C   0  0  0  0  0  0  0  0  0  0  0  0
   -1.2031   -1.0697   -0.5131 C   0  0  0  0  0  0  0  0  0  0  0  0
   -1.8836    0.0209    0.0230 C   0  0  0  0  0  0  0  0  0  0  0  0
   -1.1664    1.1113    0.5094 C   0  0  0  0  0  0  0  0  0  0  0  0
    0.2306    1.1002    0.4758 C   0  0  0  0  0  0  0  0  0  0  0  0
    0.9244   -0.0140   -0.0033 C   0  0  0  0  0  0  0  0  0  0  0  0
    2.3171    0.0281   -0.1431 N   0  0  0  0  0  0  0  0  0  0  0  0
    0.7083   -1.9193   -0.9955 H   0  0  0  0  0  0  0  0  0  0  0  0
   -1.7575   -1.9106   -0.9208 H   0  0  0  0  0  0  0  0  0  0  0  0
   -2.9700    0.0300    0.0425 H   0  0  0  0  0  0  0  0  0  0  0  0
   -1.6921    1.9775    0.9019 H   0  0  0  0  0  0  0  0  0  0  0  0
    0.7738    1.9724    0.8290 H   0  0  0  0  0  0  0  0  0  0  0  0
    2.7750    0.6375    0.5270 H   0  0  0  0  0  0  0  0  0  0  0  0
    2.7494   -0.8891   -0.1887 H   0  0  0  0  0  0  0  0  0  0  0  0
  1  2  1  0
  2  3  2  0
  3  4  1  0
  4  5  2  0
  5  6  1  0
  6  7  1  0
  6  1  2  0
  1  8  1  0
  2  9  1  0
  3 10  1  0
  4 11  1  0
  5 12  1  0
  7 13  1  0
  7 14  1  0
M  END
>  <ofe-name>  (7) 
lig_0006

$$$$
lig_0007
     RDKit          3D

 17 17  0  0  0  0  0  0  0  0999 V2000
   -0.4805    1.1865    0.2974 C   0  0  0  0  0  0  0  0  0  0  0  0
   -1.8486    1.1239    0.0238 C   0  0  0  0  0  0  0  0  0  0  0  0
   -2.4463   -0.0990   -0.2760 C   0  0  0  0  0  0  0  0  0  0  0  0
   -1.6774   -1.2606   -0.3043 C   0  0  0  0  0  0  0  0  0  0  0  0
   -0.3102   -1.1995   -0.0304 C   0  0  0  0  0  0  0  0  0  0  0  0
    0.3038    0.0244    0.2750 C   0  0  0  0  0  0  0  0  0  0  0  0
    1.7795    0.0835    0.5752 C   0  0  0  0  0  0  0  0  0  0  0  0
    2.5769   -0.2851   -0.5886 N   0  0  0  0  0  0  0  0  0  0  0  0
   -0.0316    2.1495    0.5284 H   0  0  0  0  0  0  0  0  0  0  0  0
   -2.4482    2.0300    0.0440 H   0  0  0  0  0  0  0  0  0  0  0  0
   -3.5106   -0.1466   -0.4901 H   0  0  0  0  0  0  0  0  0  0  0  0
   -2.1397   -2.2147   -0.5425 H   0  0  0  0  0  0  0  0  0  0  0  0
    0.2854   -2.1097   -0.0634 H   0  0  0  0  0  0  0  0  0  0  0  0
    2.0622    1.0919    0.8988 H   0  0  0  0  0  0  0  0  0  0  0  0
    2.0050   -0.5923    1.4079 H   0  0  0  0  0  0  0  0  0  0  0  0
    2.3216    0.3239   -1.3648 H   0  0  0  0  0  0  0  0  0  0  0  0
    3.5587   -0.1060   -0.3904 H   0  0  0  0  0  0  0  0  0  0  0  0
  1  2  1  0
  2  3  2  0
  3  4  1  0
  4  5  2  0
  5  6  1  0
  6  7  1  0
  7  8  1  0
  6  1  2  0
  1  9  1  0
  2 10  1  0
  3 11  1  0
  4 12  1  0
  5 13  1  0
  7 14  1  0
  7 15  1  0
  8 16  1  0
  8 17  1  0
M  END
>  <ofe-name>  (8) 
lig_0007

$$$$
lig_0008
     RDKit          3D

 12 12  0  0  0  0  0  0  0  0999 V2000
    0.9800   -0.9809    0.0127 C   0  0  0  0  0  0  0  0  0  0  0  0
   -0.3619   -1.3606    0.0031 C   0  0  0  0  0  0  0  0  0  0  0  0
   -1.3613   -0.3848   -0.0097 C   0  0  0  0  0  0  0  0  0  0  0  0
   -1.0206    0.9698   -0.0130 C   0  0  0  0  0  0  0  0  0  0  0  0
    0.3215    1.3488   -0.0034 C   0  0  0  0  0  0  0  0  0  0  0  0
    1.3095    0.3702    0.0094 C   0  0  0  0  0  0  0  0  0  0  0  0
    2.5985    0.7345    0.0186 F   0  0  0  0  0  0  0  0  0  0  0  0
    1.7685   -1.7263    0.0228 H   0  0  0  0  0  0  0  0  0  0  0  0
   -0.6295   -2.4141    0.0056 H   0  0  0  0  0  0  0  0  0  0  0  0
   -2.4078   -0.6806   -0.0172 H   0  0  0  0  0  0  0  0  0  0  0  0
   -1.8000    1.7273   -0.0230 H   0  0  0  0  0  0  0  0  0  0  0  0
    0.6032    2.3967   -0.0058 H   0  0  0  0  0  0  0  0  0  0  0  0
  1  2  1  0
  2  3  2  0
  3  4  1  0
  4  5  2  0
  5  6  1  0
  6  7  1  0
  6  1  2  0
  1  8  1  0
  2  9  1  0
  3 10  1  0
  4 11  1  0
  5 12  1  0
M  END
>  <ofe-name>  (9) 
lig_0008

$$$$
lig_0009
     RDKit          3D

 12 12  0  0  0  0  0  0  0  0999 V2000
    0.7312    1.1611   -0.0005 C   0  0  0  0  0  0  0  0  0  0  0  0
   -0.6587    1.2580    0.0841 C   0  0  0  0  0  0  0  0  0  0  0  0
   -1.4396    0.1014    0.0877 C   0  0  0  0  0  0  0  0  0  0  0  0
   -0.8332   -1.1529    0.0068 C   0  0  0  0  0  0  0  0  0  0  0  0
    0.5565   -1.2518   -0.0779 C   0  0  0  0  0  0  0  0  0  0  0  0
    1.3331   -0.0939   -0.0812 C   0  0  0  0  0  0  0  0  0  0  0  0
    3.0466   -0.2146   -0.1856 Cl  0  0  0  0  0  0  0  0  0  0  0  0
    1.3363    2.0634   -0.0031 H   0  0  0  0  0  0  0  0  0  0  0  0
   -1.1325    2.2344    0.1472 H   0  0  0  0  0  0  0  0  0  0  0  0
   -2.5224    0.1777    0.1536 H   0  0  0  0  0  0  0  0  0  0  0  0
   -1.4429   -2.0530    0.0097 H   0  0  0  0  0  0  0  0  0  0  0  0
    1.0255   -2.2298   -0.1408 H   0  0  0  0  0  0  0  0  0  0  0  0
  1  2  1  0
  2  3  2  0
  3  4  1  0
  4  5  2  0
  5  6  1  0
  6  7  1  0
  6  1  2  0
  1  8  1  0
  2  9  1  0
  3 10  1  0
  4 11  1  0
  5 12  1  0
M  END
>  <ofe-name>  (10) 
lig_0009

$$$$
lig_0010
     RDKit          3D

 12 12  0  0  0  0  0  0  0  0999 V2000
    0.1580   -1.3568   -0.0297 C   0  0  0  0  0  0  0  0  0  0  0  0
   -1.1446   -0.8558   -0.0268 C   0  0  0  0  0  0  0  0  0  0  0  0
   -1.3626    0.5222    0.0029 C   0  0  0  0  0  0  0  0  0  0  0  0
   -0.2794    1.4015    0.0299 C   0  0  0  0  0  0  0  0  0  0  0  0
    1.0244    0.9036    0.0271 C   0  0  0  0  0  0  0  0  0  0  0  0
    1.2371   -0.4741   -0.0027 C   0  0  0  0  0  0  0  0  0  0  0  0
    3.0025   -1.1506   -0.0065 Br  0  0  0  0  0  0  0  0  0  0  0  0
    0.3201   -2.4309   -0.0530 H   0  0  0  0  0  0  0  0  0  0  0  0
   -1.9895   -1.5394   -0.0478 H   0  0  0  0  0  0  0  0  0  0  0  0
   -2.3779    0.9113    0.0051 H   0  0  0  0  0  0  0  0  0  0  0  0
   -0.4510    2.4747    0.0531 H   0  0  0  0  0  0  0  0  0  0  0  0
    1.8629    1.5943    0.0483 H   0  0  0  0  0  0  0  0  0  0  0  0
  1  2  1  0
  2  3  2  0
  3  4  1  0
  4  5  2  0
  5  6  1  0
  6  7  1  0
  6  1  2  0
  1  8  1  0
  2  9  1  0
  3 10  1  0
  4 11  1  0
  5 12  1  0
M  END
>  <ofe-name>  (11) 
lig_0010

$$$$
lig_0011
     RDKit          3D

 15 15  0  0  0  0  0  0  0  0999 V2000
   -0.0458   -0.8939   -0.9197 C   0  0  0  0  0  0  0  0  0  0  0  0
   -1.4402   -0.9641   -0.9165 C   0  0  0  0  0  0  0  0  0  0  0  0
   -2.1766   -0.1600   -0.0469 C   0  0  0  0  0  0  0  0  0  0  0  0
   -1.5225    0.7152    0.8204 C   0  0  0  0  0  0  0  0  0  0  0  0
   -0.1277    0.7885    0.8203 C   0  0  0  0  0  0  0  0  0  0  0  0
    0.6164   -0.0170   -0.0510 C   0  0  0  0  0  0  0  0  0  0  0  0
    2.0981    0.0240   -0.0892 C   0  0  0  0  0  0  0  0  0  0  0  0
    2.8122   -0.6425   -0.8155 O   0  0  0  0  0  0  0  0  0  0  0  0
    2.6205    0.9007    0.7869 O   0  0  0  0  0  0  0  0  0  0  0  0
    0.5223   -1.5244   -1.6009 H   0  0  0  0  0  0  0  0  0  0  0  0
   -1.9510   -1.6459   -1.5920 H   0  0  0  0  0  0  0  0  0  0  0  0
   -3.2627   -0.2153   -0.0451 H   0  0  0  0  0  0  0  0  0  0  0  0
   -2.0987    1.3411    1.4975 H   0  0  0  0  0  0  0  0  0  0  0  0
    0.3682    1.4752    1.5019 H   0  0  0  0  0  0  0  0  0  0  0  0
    3.5875    0.8185    0.6496 H   0  0  0  0  0  0  0  0  0  0  0  0
  1  2  1  0
  2  3  2  0
  3  4  1  0
  4  5  2  0
  5  6  1  0
  6  7  1  0
  7  8  2  0
  7  9  1  0
  6  1  2  0
  1 10  1  0
  2 11  1  0
  3 12  1  0
  4 13  1  0
  5 14  1  0
  9 15  1  0
M  END
>  <ofe-name>  (12) 
lig_0011

$$$$
lig_0012
     RDKit          3D

 16 16  0  0  0  0  0  0  0  0999 V2000
    0.5083    1.2756    0.2711 C   0  0  0  0  0  0  0  0  0  0  0  0
    1.8754    0.9946    0.3009 C   0  0  0  0  0  0  0  0  0  0  0  0
    2.3298   -0.2871   -0.0071 C   0  0  0  0  0  0  0  0  0  0  0  0
    1.4206   -1.2874   -0.3515 C   0  0  0  0  0  0  0  0  0  0  0  0
    0.0513   -1.0106   -0.3814 C   0  0  0  0  0  0  0  0  0  0  0  0
   -0.4113    0.2719   -0.0590 C   0  0  0  0  0  0  0  0  0  0  0  0
   -1.8575    0.6193   -0.0762 C   0  0  0  0  0  0  0  0  0  0  0  0
   -2.2422    1.7776   -0.1744 O   0  0  0  0  0  0  0  0  0  0  0  0
   -2.7546   -0.4039    0.0641 N   0  0  0  0  0  0  0  0  0  0  0  0
    0.1598    2.2793    0.5074 H   0  0  0  0  0  0  0  0  0  0  0  0
    2.5841    1.7772    0.5603 H   0  0  0  0  0  0  0  0  0  0  0  0
    3.3952   -0.5038    0.0124 H   0  0  0  0  0  0  0  0  0  0  0  0
    1.7804   -2.2813   -0.6064 H   0  0  0  0  0  0  0  0  0  0  0  0
   -0.6345   -1.7962   -0.6833 H   0  0  0  0  0  0  0  0  0  0  0  0
   -2.4848   -1.3015    0.4389 H   0  0  0  0  0  0  0  0  0  0  0  0
   -3.7199   -0.1236    0.1842 H   0  0  0  0  0  0  0  0  0  0  0  0
  1  2  1  0
  2  3  2  0
  3  4  1  0
  4  5  2  0
  5  6  1  0
  6  7  1  0
  7  8  2  0
  7  9  1  0
  6  1  2  0
  1 10  1  0
  2 11  1  0
  3 12  1  0
  4 13  1  0
  5 14  1  0
  9 15  1  0
  9 16  1  0
M  END
>  <ofe-name>  (13) 
lig_0012

$$$$
lig_0013
     RDKit          3D

 13 13  0  0  0  0  0  0  0  0999 V2000
    0.5865    1.0351   -0.1775 C   0  0  0  0  0  0  0  0  0  0  0  0
   -0.7676    1.2496   -0.4452 C   0  0  0  0  0  0  0  0  0  0  0  0
   -1.6776    0.2002   -0.3263 C   0  0  0  0  0  0  0  0  0  0  0  0
   -1.2359   -1.0634    0.0629 C   0  0  0  0  0  0  0  0  0  0  0  0
    0.1177   -1.2785    0.3310 C   0  0  0  0  0  0  0  0  0  0  0  0
    1.0354   -0.2318    0.2066 C   0  0  0  0  0  0  0  0  0  0  0  0
    2.7557   -0.5179    0.5591 S   0  0  0  0  0  0  0  0  0  0  0  0
    1.2807    1.8666   -0.2671 H   0  0  0  0  0  0  0  0  0  0  0  0
   -1.1124    2.2364   -0.7434 H   0  0  0  0  0  0  0  0  0  0  0  0
   -2.7315    0.3677   -0.5335 H   0  0  0  0  0  0  0  0  0  0  0  0
   -1.9446   -1.8818    0.1598 H   0  0  0  0  0  0  0  0  0  0  0  0
    0.4485   -2.2683    0.6366 H   0  0  0  0  0  0  0  0  0  0  0  0
    3.2450    0.2861   -0.3957 H   0  0  0  0  0  0  0  0  0  0  0  0
  1  2  1  0
  2  3  2  0
  3  4  1  0
  4  5  2  0
  5  6  1  0
  6  7  1  0
  6  1  2  0
  1  8  1  0
  2  9  1  0
  3 10  1  0
  4 11  1  0
  5 12  1  0
  7 13  1  0
M  END
>  <ofe-name>  (14) 
lig_0013

$$$$
lig_0014
     RDKit          3D

 16 16  0  0  0  0  0  0  0  0999 V2000
    0.0744    0.8585   -0.8896 C   0  0  0  0  0  0  0  0  0  0  0  0
    1.4301    1.1415   -0.7140 C   0  0  0  0  0  0  0  0  0  0  0  0
    2.2178    0.3167    0.0867 C   0  0  0  0  0  0  0  0  0  0  0  0
    1.6512   -0.7906    0.7147 C   0  0  0  0  0  0  0  0  0  0  0  0
    0.2961   -1.0760    0.5403 C   0  0  0  0  0  0  0  0  0  0  0  0
   -0.5061   -0.2573   -0.2684 C   0  0  0  0  0  0  0  0  0  0  0  0
   -1.9711   -0.5575   -0.4459 C   0  0  0  0  0  0  0  0  0  0  0  0
   -2.9686    0.0877    0.9241 S   0  0  0  0  0  0  0  0  0  0  0  0
   -0.5258    1.5155   -1.5153 H   0  0  0  0  0  0  0  0  0  0  0  0
    1.8719    2.0073   -1.2006 H   0  0  0  0  0  0  0  0  0  0  0  0
    3.2727    0.5387    0.2243 H   0  0  0  0  0  0  0  0  0  0  0  0
    2.2638   -1.4310    1.3441 H   0  0  0  0  0  0  0  0  0  0  0  0
   -0.1341   -1.9392    1.0442 H   0  0  0  0  0  0  0  0  0  0  0  0
   -2.1268   -1.6392   -0.5230 H   0  0  0  0  0  0  0  0  0  0  0  0
   -2.3374   -0.1205   -1.3813 H   0  0  0  0  0  0  0  0  0  0  0  0
   -2.5081    1.3453    0.8600 H   0  0  0  0  0  0  0  0  0  0  0  0
  1  2  1  0
  2  3  2  0
  3  4  1  0
  4  5  2  0
  5  6  1  0
  6  7  1  0
  7  8  1  0
  6  1  2  0
  1  9  1  0
  2 10  1  0
  3 11  1  0
  4 12  1  0
  5 13  1  0
  7 14  1  0
  7 15  1  0
  8 16  1  0
M  END
>  <ofe-name>  (15) 
lig_0014

$$$$
lig_0015
     RDKit          3D

 24 24  0  0  0  0  0  0  0  0999 V2000
    1.1931    1.0973    0.3704 C   0  0  0  0  0  0  0  0  0  0  0  0
    2.5866    0.9970    0.4494 C   0  0  0  0  0  0  0  0  0  0  0  0
    3.2237   -0.1967    0.1283 C   0  0  0  0  0  0  0  0  0  0  0  0
    2.4677   -1.2920   -0.2723 C   0  0  0  0  0  0  0  0  0  0  0  0
    1.0758   -1.1908   -0.3509 C   0  0  0  0  0  0  0  0  0  0  0  0
    0.4040    0.0062   -0.0315 C   0  0  0  0  0  0  0  0  0  0  0  0
   -1.1297    0.0805   -0.1296 C   0  0  0  0  0  0  0  0  0  0  0  0
   -1.7144    1.4590    0.2531 C   0  0  0  0  0  0  0  0  0  0  0  0
   -1.7618   -0.9619    0.8179 C   0  0  0  0  0  0  0  0  0  0  0  0
   -1.5723   -0.2161   -1.5788 C   0  0  0  0  0  0  0  0  0  0  0  0
    0.7477    2.0528    0.6326 H   0  0  0  0  0  0  0  0  0  0  0  0
    3.1727    1.8569    0.7633 H   0  0  0  0  0  0  0  0  0  0  0  0
    4.3056   -0.2725    0.1902 H   0  0  0  0  0  0  0  0  0  0  0  0
    2.9578   -2.2284   -0.5250 H   0  0  0  0  0  0  0  0  0  0  0  0
    0.5183   -2.0693   -0.6683 H   0  0  0  0  0  0  0  0  0  0  0  0
   -1.3383    2.2530   -0.4026 H   0  0  0  0  0  0  0  0  0  0  0  0
   -1.4720    1.7269    1.2881 H   0  0  0  0  0  0  0  0  0  0  0  0
   -2.8077    1.4620    0.1676 H   0  0  0  0  0  0  0  0  0  0  0  0
   -1.4876   -1.9877    0.5480 H   0  0  0  0  0  0  0  0  0  0  0  0
   -2.8564   -0.9062    0.7933 H   0  0  0  0  0  0  0  0  0  0  0  0
   -1.4426   -0.7978    1.8540 H   0  0  0  0  0  0  0  0  0  0  0  0
   -2.6605   -0.1353   -1.6842 H   0  0  0  0  0  0  0  0  0  0  0  0
   -1.2942   -1.2263   -1.8988 H   0  0  0  0  0  0  0  0  0  0  0  0
   -1.1156    0.4895   -2.2830 H   0  0  0  0  0  0  0  0  0  0  0  0
  1  2  1  0
  2  3  2  0
  3  4  1  0
  4  5  2  0
  5  6  1  0
  6  7  1  0
  7  8  1  0
  7  9  1  0
  7 10  1  0
  6  1  2  0
  1 11  1  0
  2 12  1  0
  3 13  1  0
  4 14  1  0
  5 15  1  0
  8 16  1  0
  8 17  1  0
  8 18  1  0
  9 19  1  0
  9 20  1  0
  9 21  1  0
 10 22  1  0
 10 23  1  0
 10 24  1  0
M  END
>  <ofe-name>  (16) 
lig_0015

$$$$
lig_0016
     RDKit          3D

 16 16  0  0  0  0  0  0  0  0999 V2000
   -0.4652   -1.4560   -0.1534 C   0  0  0  0  0  0  0  0  0  0  0  0
   -1.8292   -1.2391   -0.3563 C   0  0  0  0  0  0  0  0  0  0  0  0
   -2.3312    0.0598   -0.3638 C   0  0  0  0  0  0  0  0  0  0  0  0
   -1.4686    1.1372   -0.1687 C   0  0  0  0  0  0  0  0  0  0  0  0
   -0.1021    0.9187    0.0345 C   0  0  0  0  0  0  0  0  0  0  0  0
    0.4062   -0.3812    0.0430 C   0  0  0  0  0  0  0  0  0  0  0  0
    1.7148   -0.7332    0.2297 O   0  0  0  0  0  0  0  0  0  0  0  0
    2.6412    0.3258    0.4339 C   0  0  0  0  0  0  0  0  0  0  0  0
   -0.0764   -2.4712   -0.1481 H   0  0  0  0  0  0  0  0  0  0  0  0
   -2.4960   -2.0836   -0.5078 H   0  0  0  0  0  0  0  0  0  0  0  0
   -3.3925    0.2326   -0.5214 H   0  0  0  0  0  0  0  0  0  0  0  0
   -1.8596    2.1515   -0.1744 H   0  0  0  0  0  0  0  0  0  0  0  0
    0.5354    1.7835    0.1825 H   0  0  0  0  0  0  0  0  0  0  0  0
    3.6327   -0.1182    0.5656 H   0  0  0  0  0  0  0  0  0  0  0  0
    2.6855    0.9857   -0.4389 H   0  0  0  0  0  0  0  0  0  0  0  0
    2.4048    0.8876    1.3436 H   0  0  0  0  0  0  0  0  0  0  0  0
  1  2  1  0
  2  3  2  0
  3  4  1  0
  4  5  2  0
  5  6  1  0
  6  7  1  0
  7  8  1  0
  6  1  2  0
  1  9  1  0
  2 10  1  0
  3 11  1  0
  4 12  1  0
  5 13  1  0
  8 14  1  0
  8 15  1  0
  8 16  1  0
M  END
>  <ofe-name>  (17) 
lig_0016

$$$$
lig_0017
     RDKit          3D

 19 19  0  0  0  0  0  0  0  0999 V2000
   -0.9404    0.5899   -0.6570 C   0  0  0  0  0  0  0  0  0  0  0  0
   -2.3386    0.6290   -0.6629 C   0  0  0  0  0  0  0  0  0  0  0  0
   -3.0670   -0.1374    0.2454 C   0  0  0  0  0  0  0  0  0  0  0  0
   -2.3988   -0.9449    1.1622 C   0  0  0  0  0  0  0  0  0  0  0  0
   -1.0034   -0.9831    1.1671 C   0  0  0  0  0  0  0  0  0  0  0  0
   -0.2658   -0.2177    0.2597 C   0  0  0  0  0  0  0  0  0  0  0  0
    1.0910   -0.3486    0.3732 O   0  0  0  0  0  0  0  0  0  0  0  0
    1.8934    0.4105   -0.5289 C   0  0  0  0  0  0  0  0  0  0  0  0
    3.3505    0.1120   -0.2240 C   0  0  0  0  0  0  0  0  0  0  0  0
   -0.4110    1.2010   -1.3798 H   0  0  0  0  0  0  0  0  0  0  0  0
   -2.8593    1.2597   -1.3790 H   0  0  0  0  0  0  0  0  0  0  0  0
   -4.1533   -0.1049    0.2384 H   0  0  0  0  0  0  0  0  0  0  0  0
   -2.9603   -1.5449    1.8731 H   0  0  0  0  0  0  0  0  0  0  0  0
   -0.4846   -1.6145    1.8841 H   0  0  0  0  0  0  0  0  0  0  0  0
    1.7117    1.4826   -0.3902 H   0  0  0  0  0  0  0  0  0  0  0  0
    1.6787    0.1223   -1.5644 H   0  0  0  0  0  0  0  0  0  0  0  0
    3.5892    0.3744    0.8120 H   0  0  0  0  0  0  0  0  0  0  0  0
    4.0112    0.6722   -0.8915 H   0  0  0  0  0  0  0  0  0  0  0  0
    3.5568   -0.9575   -0.3376 H   0  0  0  0  0  0  0  0  0  0  0  0
  1  2  1  0
  2  3  2  0
  3  4  1  0
  4  5  2  0
  5  6  1  0
  6  7  1  0
  7  8  1  0
  8  9  1  0
  6  1  2  0
  1 10  1  0
  2 11  1  0
  3 12  1  0
  4 13  1  0
  5 14  1  0
  8 15  1  0
  8 16  1  0
  9 17  1  0
  9 18  1  0
  9 19  1  0
M  END
>  <ofe-name>  (18) 
lig_0017

$$$$
lig_0018
     RDKit          3D

 19 19  0  0  0  0  0  0  0  0999 V2000
   -0.8932   -1.1142   -0.0762 C   0  0  0  0  0  0  0  0  0  0  0  0
   -2.2834   -1.2575   -0.0131 C   0  0  0  0  0  0  0  0  0  0  0  0
   -3.1017   -0.1352    0.0886 C   0  0  0  0  0  0  0  0  0  0  0  0
   -2.5308    1.1336    0.1271 C   0  0  0  0  0  0  0  0  0  0  0  0
   -1.1420    1.2766    0.0640 C   0  0  0  0  0  0  0  0  0  0  0  0
   -0.3099    0.1533   -0.0378 C   0  0  0  0  0  0  0  0  0  0  0  0
    1.0800    0.3854   -0.0972 N   0  0  0  0  0  0  0  0  0  0  0  0
    2.0888   -0.5564   -0.1889 C   0  0  0  0  0  0  0  0  0  0  0  0
    1.9643   -1.7753   -0.2151 O   0  0  0  0  0  0  0  0  0  0  0  0
    3.4572    0.0780   -0.2257 C   0  0  0  0  0  0  0  0  0  0  0  0
   -0.2948   -2.0163   -0.1558 H   0  0  0  0  0  0  0  0  0  0  0  0
   -2.7228   -2.2514   -0.0439 H   0  0  0  0  0  0  0  0  0  0  0  0
   -4.1811   -0.2513    0.1375 H   0  0  0  0  0  0  0  0  0  0  0  0
   -3.1654    2.0123    0.2063 H   0  0  0  0  0  0  0  0  0  0  0  0
   -0.7237    2.2790    0.0961 H   0  0  0  0  0  0  0  0  0  0  0  0
    1.3655    1.3554   -0.0604 H   0  0  0  0  0  0  0  0  0  0  0  0
    3.4452    1.0004   -0.8135 H   0  0  0  0  0  0  0  0  0  0  0  0
    3.7830    0.2957    0.7948 H   0  0  0  0  0  0  0  0  0  0  0  0
    4.1651   -0.6122   -0.6937 H   0  0  0  0  0  0  0  0  0  0  0  0
  1  2  1  0
  2  3  2  0
  3  4  1  0
  4  5  2  0
  5  6  1  0
  6  7  1  0
  7  8  1  0
  8  9  2  0
  8 10  1  0
  6  1  2  0
  1 11  1  0
  2 12  1  0
  3 13  1  0
  4 14  1  0
  5 15  1  0
  7 16  1  0
 10 17  1  0
 10 18  1  0
 10 19  1  0
M  END
>  <ofe-name>  (19) 
lig_0018

$$$$
lig_0019
     RDKit          3D

 22 23  0  0  0  0  0  0  0  0999 V2000
    1.4854   -0.9856    0.6358 C   0  0  0  0  0  0  0  0  0  0  0  0
    2.8801   -0.9177    0.6947 C   0  0  0  0  0  0  0  0  0  0  0  0
    3.5486    0.1744    0.1474 C   0  0  0  0  0  0  0  0  0  0  0  0
    2.8241    1.1980   -0.4578 C   0  0  0  0  0  0  0  0  0  0  0  0
    1.4293    1.1289   -0.5147 C   0  0  0  0  0  0  0  0  0  0  0  0
    0.7347    0.0361    0.0305 C   0  0  0  0  0  0  0  0  0  0  0  0
   -0.7347   -0.0361   -0.0305 C   0  0  0  0  0  0  0  0  0  0  0  0
   -1.5321    1.0146    0.4533 C   0  0  0  0  0  0  0  0  0  0  0  0
   -2.9269    0.9467    0.3964 C   0  0  0  0  0  0  0  0  0  0  0  0
   -3.5486   -0.1744   -0.1474 C   0  0  0  0  0  0  0  0  0  0  0  0
   -2.7773   -1.2270   -0.6333 C   0  0  0  0  0  0  0  0  0  0  0  0
   -1.3826   -1.1578   -0.5744 C   0  0  0  0  0  0  0  0  0  0  0  0
    0.9819   -1.8421    1.0797 H   0  0  0  0  0  0  0  0  0  0  0  0
    3.4418   -1.7171    1.1707 H   0  0  0  0  0  0  0  0  0  0  0  0
    4.6331    0.2276    0.1924 H   0  0  0  0  0  0  0  0  0  0  0  0
    3.3423    2.0504   -0.8889 H   0  0  0  0  0  0  0  0  0  0  0  0
    0.8829    1.9338   -1.0023 H   0  0  0  0  0  0  0  0  0  0  0  0
   -1.0664    1.8946    0.8926 H   0  0  0  0  0  0  0  0  0  0  0  0
   -3.5254    1.7689    0.7795 H   0  0  0  0  0  0  0  0  0  0  0  0
   -4.6331   -0.2277   -0.1924 H   0  0  0  0  0  0  0  0  0  0  0  0
   -3.2587   -2.1023   -1.0613 H   0  0  0  0  0  0  0  0  0  0  0  0
   -0.7984   -1.9862   -0.9701 H   0  0  0  0  0  0  0  0  0  0  0  0
  1  2  1  0
  2  3  2  0
  3  4  1  0
  4  5  2  0
  5  6  1  0
  6  7  1  0
  7  8  2  0
  8  9  1  0
  9 10  2  0
 10 11  1  0
 11 12  2  0
  6  1  2  0
 12  7  1  0
  1 13  1  0
  2 14  1  0
  3 15  1  0
  4 16  1  0
  5 17  1  0
  8 18  1  0
  9 19  1  0
 10 20  1  0
 11 21  1  0
 12 22  1  0
M  END
>  <ofe-name>  (20) 
lig_0019

$$$$
lig_0020
     RDKit          3D

 18 18  0  0  0  0  0  0  0  0999 V2000
    0.9979    1.4371   -0.0917 C   0  0  0  0  0  0  0  0  0  0  0  0
   -0.3013    1.9288   -0.2171 C   0  0  0  0  0  0  0  0  0  0  0  0
   -1.3860    1.0521   -0.2035 C   0  0  0  0  0  0  0  0  0  0  0  0
   -1.1804   -0.3254   -0.0704 C   0  0  0  0  0  0  0  0  0  0  0  0
   -2.3476   -1.2657   -0.0138 C   0  0  0  0  0  0  0  0  0  0  0  0
    0.1275   -0.8096    0.0697 C   0  0  0  0  0  0  0  0  0  0  0  0
    1.2241    0.0629    0.0424 C   0  0  0  0  0  0  0  0  0  0  0  0
    2.6173   -0.4640    0.2191 C   0  0  0  0  0  0  0  0  0  0  0  0
    1.8329    2.1337   -0.0960 H   0  0  0  0  0  0  0  0  0  0  0  0
   -0.4691    2.9975   -0.3199 H   0  0  0  0  0  0  0  0  0  0  0  0
   -2.3935    1.4512   -0.2942 H   0  0  0  0  0  0  0  0  0  0  0  0
   -2.6739   -1.3951    1.0227 H   0  0  0  0  0  0  0  0  0  0  0  0
   -2.0807   -2.2444   -0.4264 H   0  0  0  0  0  0  0  0  0  0  0  0
   -3.1870   -0.8832   -0.6040 H   0  0  0  0  0  0  0  0  0  0  0  0
    0.2938   -1.8773    0.1998 H   0  0  0  0  0  0  0  0  0  0  0  0
    2.7101   -1.4708   -0.2015 H   0  0  0  0  0  0  0  0  0  0  0  0
    2.8718   -0.4994    1.2828 H   0  0  0  0  0  0  0  0  0  0  0  0
    3.3442    0.1714   -0.2978 H   0  0  0  0  0  0  0  0  0  0  0  0
  1  2  2  0
  2  3  1  0
  3  4  2  0
  4  5  1  0
  4  6  1  0
  6  7  2  0
  7  8  1  0
  7  1  1  0
  1  9  1  0
  2 10  1  0
  3 11  1  0
  5 12  1  0
  5 13  1  0
  5 14  1  0
  6 15  1  0
  8 16  1  0
  8 17  1  0
  8 18  1  0
M  END
>  <ofe-name>  (21) 
lig_0020

$$$$
lig_0021
     RDKit          3D

 21 21  0  0  0  0  0  0  0  0999 V2000
   -0.4962   -0.7463    1.3951 C   0  0  0  0  0  0  0  0  0  0  0  0
    0.7694   -0.6412    1.9713 C   0  0  0  0  0  0  0  0  0  0  0  0
    1.8553   -0.2198    1.2042 C   0  0  0  0  0  0  0  0  0  0  0  0
    1.6826    0.1128   -0.1438 C   0  0  0  0  0  0  0  0  0  0  0  0
    2.8545    0.5380   -0.9778 C   0  0  0  0  0  0  0  0  0  0  0  0
    0.4105   -0.0099   -0.7193 C   0  0  0  0  0  0  0  0  0  0  0  0
   -0.6860   -0.4395    0.0424 C   0  0  0  0  0  0  0  0  0  0  0  0
   -2.0547   -0.5433   -0.5801 C   0  0  0  0  0  0  0  0  0  0  0  0
   -2.8255    0.7635   -0.4723 C   0  0  0  0  0  0  0  0  0  0  0  0
   -1.3338   -1.0726    2.0071 H   0  0  0  0  0  0  0  0  0  0  0  0
    0.9101   -0.8894    3.0200 H   0  0  0  0  0  0  0  0  0  0  0  0
    2.8373   -0.1495    1.6661 H   0  0  0  0  0  0  0  0  0  0  0  0
    2.5422    1.2327   -1.7646 H   0  0  0  0  0  0  0  0  0  0  0  0
    3.6022    1.0549   -0.3671 H   0  0  0  0  0  0  0  0  0  0  0  0
    3.3204   -0.3368   -1.4418 H   0  0  0  0  0  0  0  0  0  0  0  0
    0.2713    0.2331   -1.7710 H   0  0  0  0  0  0  0  0  0  0  0  0
   -2.6207   -1.3483   -0.0958 H   0  0  0  0  0  0  0  0  0  0  0  0
   -1.9596   -0.8320   -1.6340 H   0  0  0  0  0  0  0  0  0  0  0  0
   -3.8137    0.6589   -0.9311 H   0  0  0  0  0  0  0  0  0  0  0  0
   -2.9662    1.0565    0.5737 H   0  0  0  0  0  0  0  0  0  0  0  0
   -2.2996    1.5783   -0.9814 H   0  0  0  0  0  0  0  0  0  0  0  0
  1  2  1  0
  2  3  2  0
  3  4  1  0
  4  5  1  0
  4  6  2  0
  6  7  1  0
  7  8  1  0
  8  9  1  0
  7  1  2  0
  1 10  1  0
  2 11  1  0
  3 12  1  0
  5 13  1  0
  5 14  1  0
  5 15  1  0
  6 16  1  0
  8 17  1  0
  8 18  1  0
  9 19  1  0
  9 20  1  0
  9 21  1  0
M  END
>  <ofe-name>  (22) 
lig_0021

$$$$
lig_0022
     RDKit          3D

 24 24  0  0  0  0  0  0  0  0999 V2000
   -0.3606    1.6749   -0.3949 C   0  0  0  0  0  0  0  0  0  0  0  0
   -1.6718    1.8280   -0.8445 C   0  0  0  0  0  0  0  0  0  0  0  0
   -2.6076    0.8157   -0.6322 C   0  0  0  0  0  0  0  0  0  0  0  0
   -2.2369   -0.3649    0.0207 C   0  0  0  0  0  0  0  0  0  0  0  0
   -3.2490   -1.4421    0.2758 C   0  0  0  0  0  0  0  0  0  0  0  0
   -0.9212   -0.5049    0.4828 C   0  0  0  0  0  0  0  0  0  0  0  0
    0.0248    0.5105    0.2801 C   0  0  0  0  0  0  0  0  0  0  0  0
    1.4448    0.3385    0.7587 C   0  0  0  0  0  0  0  0  0  0  0  0
    2.3211   -0.3294   -0.3015 C   0  0  0  0  0  0  0  0  0  0  0  0
    3.7509   -0.4994    0.1867 C   0  0  0  0  0  0  0  0  0  0  0  0
    0.3587    2.4711   -0.5713 H   0  0  0  0  0  0  0  0  0  0  0  0
   -1.9654    2.7384   -1.3602 H   0  0  0  0  0  0  0  0  0  0  0  0
   -3.6279    0.9528   -0.9826 H   0  0  0  0  0  0  0  0  0  0  0  0
   -2.7751   -2.4293    0.2826 H   0  0  0  0  0  0  0  0  0  0  0  0
   -3.7365   -1.2763    1.2414 H   0  0  0  0  0  0  0  0  0  0  0  0
   -4.0130   -1.4548   -0.5087 H   0  0  0  0  0  0  0  0  0  0  0  0
   -0.6290   -1.4144    1.0043 H   0  0  0  0  0  0  0  0  0  0  0  0
    1.4482   -0.2551    1.6818 H   0  0  0  0  0  0  0  0  0  0  0  0
    1.8590    1.3180    1.0298 H   0  0  0  0  0  0  0  0  0  0  0  0
    2.3243    0.2690   -1.2207 H   0  0  0  0  0  0  0  0  0  0  0  0
    1.9125   -1.3126   -0.5651 H   0  0  0  0  0  0  0  0  0  0  0  0
    4.3607   -0.9785   -0.5856 H   0  0  0  0  0  0  0  0  0  0  0  0
    4.2023    0.4693    0.4236 H   0  0  0  0  0  0  0  0  0  0  0  0
    3.7870   -1.1247    1.0845 H   0  0  0  0  0  0  0  0  0  0  0  0
  1  2  1  0
  2  3  2  0
  3  4  1  0
  4  5  1  0
  4  6  2  0
  6  7  1  0
  7  8  1  0
  8  9  1  0
  9 10  1  0
  7  1  2  0
  1 11  1  0
  2 12  1  0
  3 13  1  0
  5 14  1  0
  5 15  1  0
  5 16  1  0
  6 17  1  0
  8 18  1  0
  8 19  1  0
  9 20  1  0
  9 21  1  0
 10 22  1  0
 10 23  1  0
 10 24  1  0
M  END
>  <ofe-name>  (23) 
lig_0022

$$$$
lig_0023
     RDKit          3D

 16 16  0  0  0  0  0  0  0  0999 V2000
   -1.8926    0.5788   -0.2146 C   0  0  0  0  0  0  0  0  0  0  0  0
   -0.9833    1.6310   -0.1265 C   0  0  0  0  0  0  0  0  0  0  0  0
    0.3784    1.3657    0.0329 C   0  0  0  0  0  0  0  0  0  0  0  0
    0.8404    0.0450    0.1158 C   0  0  0  0  0  0  0  0  0  0  0  0
    2.3074   -0.2371    0.2530 C   0  0  0  0  0  0  0  0  0  0  0  0
   -0.0785   -1.0082    0.0117 C   0  0  0  0  0  0  0  0  0  0  0  0
   -1.4347   -0.7311   -0.1472 C   0  0  0  0  0  0  0  0  0  0  0  0
   -2.3568   -1.7315   -0.2449 O   0  0  0  0  0  0  0  0  0  0  0  0
   -2.9527    0.7788   -0.3394 H   0  0  0  0  0  0  0  0  0  0  0  0
   -1.3349    2.6575   -0.1848 H   0  0  0  0  0  0  0  0  0  0  0  0
    1.0774    2.1970    0.0928 H   0  0  0  0  0  0  0  0  0  0  0  0
    2.4760   -1.1691    0.8027 H   0  0  0  0  0  0  0  0  0  0  0  0
    2.7661   -0.3217   -0.7369 H   0  0  0  0  0  0  0  0  0  0  0  0
    2.8088    0.5622    0.8087 H   0  0  0  0  0  0  0  0  0  0  0  0
    0.2738   -2.0344    0.0559 H   0  0  0  0  0  0  0  0  0  0  0  0
   -1.8947   -2.5828   -0.1793 H   0  0  0  0  0  0  0  0  0  0  0  0
  1  2  2  0
  2  3  1  0
  3  4  2  0
  4  5  1  0
  4  6  1  0
  6  7  2  0
  7  8  1  0
  7  1  1  0
  1  9  1  0
  2 10  1  0
  3 11  1  0
  5 12  1  0
  5 13  1  0
  5 14  1  0
  6 15  1  0
  8 16  1  0
M  END
>  <ofe-name>  (24) 
lig_0023

$$$$
lig_0024
     RDKit          3D

 19 19  0  0  0  0  0  0  0  0999 V2000
    0.5435   -1.6047   -0.1772 C   0  0  0  0  0  0  0  0  0  0  0  0
   -0.7791   -1.7499   -0.5944 C   0  0  0  0  0  0  0  0  0  0  0  0
   -1.6614   -0.6726   -0.5121 C   0  0  0  0  0  0  0  0  0  0  0  0
   -1.2253    0.5646   -0.0252 C   0  0  0  0  0  0  0  0  0  0  0  0
   -2.1804    1.7159    0.0884 C   0  0  0  0  0  0  0  0  0  0  0  0
    0.1012    0.6985    0.4064 C   0  0  0  0  0  0  0  0  0  0  0  0
    0.9921   -0.3830    0.3395 C   0  0  0  0  0  0  0  0  0  0  0  0
    2.4254   -0.2154    0.7658 C   0  0  0  0  0  0  0  0  0  0  0  0
    3.2206    0.2430   -0.3194 O   0  0  0  0  0  0  0  0  0  0  0  0
    1.2226   -2.4513   -0.2542 H   0  0  0  0  0  0  0  0  0  0  0  0
   -1.1239   -2.7043   -0.9842 H   0  0  0  0  0  0  0  0  0  0  0  0
   -2.6918   -0.8036   -0.8348 H   0  0  0  0  0  0  0  0  0  0  0  0
   -2.9507    1.6630   -0.6882 H   0  0  0  0  0  0  0  0  0  0  0  0
   -2.6656    1.7039    1.0692 H   0  0  0  0  0  0  0  0  0  0  0  0
   -1.6582    2.6702   -0.0373 H   0  0  0  0  0  0  0  0  0  0  0  0
    0.4463    1.6548    0.7968 H   0  0  0  0  0  0  0  0  0  0  0  0
    2.5055    0.5053    1.5864 H   0  0  0  0  0  0  0  0  0  0  0  0
    2.8390   -1.1638    1.1246 H   0  0  0  0  0  0  0  0  0  0  0  0
    2.6403    0.3294   -1.0954 H   0  0  0  0  0  0  0  0  0  0  0  0
  1  2  1  0
  2  3  2  0
  3  4  1  0
  4  5  1  0
  4  6  2  0
  6  7  1  0
  7  8  1  0
  8  9  1  0
  7  1  2  0
  1 10  1  0
  2 11  1  0
  3 12  1  0
  5 13  1  0
  5 14  1  0
  5 15  1  0
  6 16  1  0
  8 17  1  0
  8 18  1  0
  9 19  1  0
M  END
>  <ofe-name>  (25) 
lig_0024

$$$$
lig_0025
     RDKit          3D

 17 17  0  0  0  0  0  0  0  0999 V2000
    1.6194    0.8397    0.1139 C   0  0  0  0  0  0  0  0  0  0  0  0
    0.6087    1.8013    0.0594 C   0  0  0  0  0  0  0  0  0  0  0  0
   -0.7254    1.4081   -0.0334 C   0  0  0  0  0  0  0  0  0  0  0  0
   -1.0574    0.0501   -0.0629 C   0  0  0  0  0  0  0  0  0  0  0  0
   -2.4935   -0.3815   -0.0908 C   0  0  0  0  0  0  0  0  0  0  0  0
   -0.0313   -0.9045    0.0066 C   0  0  0  0  0  0  0  0  0  0  0  0
    1.3131   -0.5204    0.0378 C   0  0  0  0  0  0  0  0  0  0  0  0
    2.3172   -1.4805    0.2168 N   0  0  0  0  0  0  0  0  0  0  0  0
    2.6510    1.1633    0.2195 H   0  0  0  0  0  0  0  0  0  0  0  0
    0.8622    2.8569    0.1067 H   0  0  0  0  0  0  0  0  0  0  0  0
   -1.5042    2.1665   -0.0626 H   0  0  0  0  0  0  0  0  0  0  0  0
   -3.1119    0.3519   -0.6190 H   0  0  0  0  0  0  0  0  0  0  0  0
   -2.6037   -1.3363   -0.6155 H   0  0  0  0  0  0  0  0  0  0  0  0
   -2.8709   -0.4925    0.9303 H   0  0  0  0  0  0  0  0  0  0  0  0
   -0.2868   -1.9609    0.0352 H   0  0  0  0  0  0  0  0  0  0  0  0
    3.2353   -1.1686   -0.0829 H   0  0  0  0  0  0  0  0  0  0  0  0
    2.0783   -2.3925   -0.1591 H   0  0  0  0  0  0  0  0  0  0  0  0
  1  2  2  0
  2  3  1  0
  3  4  2  0
  4  5  1  0
  4  6  1  0
  6  7  2  0
  7  8  1  0
  7  1  1  0
  1  9  1  0
  2 10  1  0
  3 11  1  0
  5 12  1  0
  5 13  1  0
  5 14  1  0
  6 15  1  0
  8 16  1  0
  8 17  1  0
M  END
>  <ofe-name>  (26) 
lig_0025

$$$$
lig_0026
     RDKit          3D

 20 20  0  0  0  0  0  0  0  0999 V2000
    0.7466    1.4791   -0.3737 C   0  0  0  0  0  0  0  0  0  0  0  0
   -0.4993    2.0903   -0.2278 C   0  0  0  0  0  0  0  0  0  0  0  0
   -1.6385    1.3162   -0.0072 C   0  0  0  0  0  0  0  0  0  0  0  0
   -1.5409   -0.0764    0.0818 C   0  0  0  0  0  0  0  0  0  0  0  0
   -2.7669   -0.9144    0.2911 C   0  0  0  0  0  0  0  0  0  0  0  0
   -0.2883   -0.6832   -0.0814 C   0  0  0  0  0  0  0  0  0  0  0  0
    0.8655    0.0849   -0.3059 C   0  0  0  0  0  0  0  0  0  0  0  0
    2.2051   -0.5840   -0.4782 C   0  0  0  0  0  0  0  0  0  0  0  0
    2.6155   -1.2812    0.7351 N   0  0  0  0  0  0  0  0  0  0  0  0
    1.6228    2.0995   -0.5452 H   0  0  0  0  0  0  0  0  0  0  0  0
   -0.5835    3.1721   -0.2884 H   0  0  0  0  0  0  0  0  0  0  0  0
   -2.6032    1.8067    0.0982 H   0  0  0  0  0  0  0  0  0  0  0  0
   -3.1995   -1.1922   -0.6749 H   0  0  0  0  0  0  0  0  0  0  0  0
   -2.5261   -1.8264    0.8473 H   0  0  0  0  0  0  0  0  0  0  0  0
   -3.5187   -0.3695    0.8718 H   0  0  0  0  0  0  0  0  0  0  0  0
   -0.1993   -1.7673   -0.0250 H   0  0  0  0  0  0  0  0  0  0  0  0
    2.9694    0.1563   -0.7413 H   0  0  0  0  0  0  0  0  0  0  0  0
    2.1488   -1.2930   -1.3119 H   0  0  0  0  0  0  0  0  0  0  0  0
    2.6150   -0.6171    1.5081 H   0  0  0  0  0  0  0  0  0  0  0  0
    3.5756   -1.6004    0.6276 H   0  0  0  0  0  0  0  0  0  0  0  0
  1  2  1  0
  2  3  2  0
  3  4  1  0
  4  5  1  0
  4  6  2  0
  6  7  1  0
  7  8  1  0
  8  9  1  0
  7  1  2  0
  1 10  1  0
  2 11  1  0
  3 12  1  0
  5 13  1  0
  5 14  1  0
  5 15  1  0
  6 16  1  0
  8 17  1  0
  8 18  1  0
  9 19  1  0
  9 20  1  0
M  END
>  <ofe-name>  (27) 
lig_0026

$$$$
lig_0027
     RDKit          3D

 15 15  0  0  0  0  0  0  0  0999 V2000
   -2.0753    0.0131   -0.0370 C   0  0  0  0  0  0  0  0  0  0  0  0
   -1.3943   -1.2015   -0.0866 C   0  0  0  0  0  0  0  0  0  0  0  0
    0.0031   -1.2198   -0.0555 C   0  0  0  0  0  0  0  0  0  0  0  0
    0.7310   -0.0246    0.0359 C   0  0  0  0  0  0  0  0  0  0  0  0
    2.2306   -0.0450    0.0348 C   0  0  0  0  0  0  0  0  0  0  0  0
    0.0378    1.1912    0.0705 C   0  0  0  0  0  0  0  0  0  0  0  0
   -1.3534    1.1980    0.0389 C   0  0  0  0  0  0  0  0  0  0  0  0
   -2.0073    2.3667    0.0788 F   0  0  0  0  0  0  0  0  0  0  0  0
   -3.1595    0.0445   -0.0612 H   0  0  0  0  0  0  0  0  0  0  0  0
   -1.9489   -2.1340   -0.1523 H   0  0  0  0  0  0  0  0  0  0  0  0
    0.5223   -2.1751   -0.1024 H   0  0  0  0  0  0  0  0  0  0  0  0
    2.6334    0.8087    0.5898 H   0  0  0  0  0  0  0  0  0  0  0  0
    2.6045   -0.0072   -0.9929 H   0  0  0  0  0  0  0  0  0  0  0  0
    2.6087   -0.9529    0.5165 H   0  0  0  0  0  0  0  0  0  0  0  0
    0.5674    2.1378    0.1227 H   0  0  0  0  0  0  0  0  0  0  0  0
  1  2  2  0
  2  3  1  0
  3  4  2  0
  4  5  1  0
  4  6  1  0
  6  7  2  0
  7  8  1  0
  7  1  1  0
  1  9  1  0
  2 10  1  0
  3 11  1  0
  5 12  1  0
  5 13  1  0
  5 14  1  0
  6 15  1  0
M  END
>  <ofe-name>  (28) 
lig_0027

$$$$
lig_0028
     RDKit          3D

 15 15  0  0  0  0  0  0  0  0999 V2000
   -2.0558    0.1744    0.0468 C   0  0  0  0  0  0  0  0  0  0  0  0
   -1.4735   -1.0579    0.3420 C   0  0  0  0  0  0  0  0  0  0  0  0
   -0.0840   -1.1971    0.3229 C   0  0  0  0  0  0  0  0  0  0  0  0
    0.7368   -0.1031    0.0186 C   0  0  0  0  0  0  0  0  0  0  0  0
    2.2275   -0.2626   -0.0346 C   0  0  0  0  0  0  0  0  0  0  0  0
    0.1438    1.1281   -0.2913 C   0  0  0  0  0  0  0  0  0  0  0  0
   -1.2448    1.2617   -0.2708 C   0  0  0  0  0  0  0  0  0  0  0  0
   -1.9621    2.7810   -0.6450 Cl  0  0  0  0  0  0  0  0  0  0  0  0
   -3.1371    0.2788    0.0618 H   0  0  0  0  0  0  0  0  0  0  0  0
   -2.1016   -1.9115    0.5844 H   0  0  0  0  0  0  0  0  0  0  0  0
    0.3556   -2.1668    0.5482 H   0  0  0  0  0  0  0  0  0  0  0  0
    2.5367   -0.5539   -1.0431 H   0  0  0  0  0  0  0  0  0  0  0  0
    2.7300    0.6726    0.2340 H   0  0  0  0  0  0  0  0  0  0  0  0
    2.5641   -1.0268    0.6738 H   0  0  0  0  0  0  0  0  0  0  0  0
    0.7644    1.9832   -0.5479 H   0  0  0  0  0  0  0  0  0  0  0  0
  1  2  2  0
  2  3  1  0
  3  4  2  0
  4  5  1  0
  4  6  1  0
  6  7  2  0
  7  8  1  0
  7  1  1  0
  1  9  1  0
  2 10  1  0
  3 11  1  0
  5 12  1  0
  5 13  1  0
  5 14  1  0
  6 15  1  0
M  END
>  <ofe-name>  (29) 
lig_0028

$$$$
lig_0029
     RDKit          3D

 15 15  0  0  0  0  0  0  0  0999 V2000
    1.9418    0.6851   -0.0158 C   0  0  0  0  0  0  0  0  0  0  0  0
    0.9046    1.6070   -0.1538 C   0  0  0  0  0  0  0  0  0  0  0  0
   -0.4232    1.1741   -0.1471 C   0  0  0  0  0  0  0  0  0  0  0  0
   -0.7265   -0.1856   -0.0023 C   0  0  0  0  0  0  0  0  0  0  0  0
   -2.1486   -0.6629    0.0067 C   0  0  0  0  0  0  0  0  0  0  0  0
    0.3203   -1.1072    0.1361 C   0  0  0  0  0  0  0  0  0  0  0  0
    1.6447   -0.6683    0.1286 C   0  0  0  0  0  0  0  0  0  0  0  0
    3.0485   -1.9212    0.3162 Br  0  0  0  0  0  0  0  0  0  0  0  0
    2.9720    1.0302   -0.0220 H   0  0  0  0  0  0  0  0  0  0  0  0
    1.1298    2.6645   -0.2669 H   0  0  0  0  0  0  0  0  0  0  0  0
   -1.2197    1.9073   -0.2559 H   0  0  0  0  0  0  0  0  0  0  0  0
   -2.3733   -1.1603    0.9556 H   0  0  0  0  0  0  0  0  0  0  0  0
   -2.8521    0.1677   -0.1119 H   0  0  0  0  0  0  0  0  0  0  0  0
   -2.3158   -1.3646   -0.8168 H   0  0  0  0  0  0  0  0  0  0  0  0
    0.0976   -2.1656    0.2494 H   0  0  0  0  0  0  0  0  0  0  0  0
  1  2  2  0
  2  3  1  0
  3  4  2  0
  4  5  1  0
  4  6  1  0
  6  7  2  0
  7  8  1  0
  7  1  1  0
  1  9  1  0
  2 10  1  0
  3 11  1  0
  5 12  1  0
  5 13  1  0
  5 14  1  0
  6 15  1  0
M  END
>  <ofe-name>  (30) 
lig_0029

$$$$
lig_0030
     RDKit          3D

 18 18  0  0  0  0  0  0  0  0999 V2000
    1.1953    1.3031    0.3020 C   0  0  0  0  0  0  0  0  0  0  0  0
    0.0150    2.0445    0.2473 C   0  0  0  0  0  0  0  0  0  0  0  0
   -1.2046    1.4017    0.0294 C   0  0  0  0  0  0  0  0  0  0  0  0
   -1.2583    0.0107   -0.1255 C   0  0  0  0  0  0  0  0  0  0  0  0
   -2.5662   -0.6741   -0.3932 C   0  0  0  0  0  0  0  0  0  0  0  0
   -0.0670   -0.7281   -0.0844 C   0  0  0  0  0  0  0  0  0  0  0  0
    1.1596   -0.0860    0.1342 C   0  0  0  0  0  0  0  0  0  0  0  0
    2.4398   -0.8323    0.1917 C   0  0  0  0  0  0  0  0  0  0  0  0
    3.5412   -0.3473    0.3749 O   0  0  0  0  0  0  0  0  0  0  0  0
    2.2835   -2.1568    0.0171 O   0  0  0  0  0  0  0  0  0  0  0  0
    2.1422    1.8117    0.4715 H   0  0  0  0  0  0  0  0  0  0  0  0
    0.0459    3.1242    0.3718 H   0  0  0  0  0  0  0  0  0  0  0  0
   -2.1160    1.9945   -0.0180 H   0  0  0  0  0  0  0  0  0  0  0  0
   -3.3941   -0.1331    0.0771 H   0  0  0  0  0  0  0  0  0  0  0  0
   -2.5667   -1.6889    0.0183 H   0  0  0  0  0  0  0  0  0  0  0  0
   -2.7460   -0.7285   -1.4712 H   0  0  0  0  0  0  0  0  0  0  0  0
   -0.0998   -1.8067   -0.2229 H   0  0  0  0  0  0  0  0  0  0  0  0
    3.1961   -2.5086    0.0799 H   0  0  0  0  0  0  0  0  0  0  0  0
  1  2  2  0
  2  3  1  0
  3  4  2  0
  4  5  1  0
  4  6  1  0
  6  7  2  0
  7  8  1  0
  8  9  2  0
  8 10  1  0
  7  1  1  0
  1 11  1  0
  2 12  1  0
  3 13  1  0
  5 14  1  0
  5 15  1  0
  5 16  1  0
  6 17  1  0
 10 18  1  0
M  END
>  <ofe-name>  (31) 
lig_0030

$$$$
lig_0031
     RDKit          3D

 19 19  0  0  0  0  0  0  0  0999 V2000
    0.7328    1.4400    0.8518 C   0  0  0  0  0  0  0  0  0  0  0  0
   -0.4636    2.0747    0.5190 C   0  0  0  0  0  0  0  0  0  0  0  0
   -1.4744    1.3639   -0.1292 C   0  0  0  0  0  0  0  0  0  0  0  0
   -1.3063    0.0075   -0.4346 C   0  0  0  0  0  0  0  0  0  0  0  0
   -2.3906   -0.7497   -1.1436 C   0  0  0  0  0  0  0  0  0  0  0  0
   -0.0946   -0.6219   -0.1123 C   0  0  0  0  0  0  0  0  0  0  0  0
    0.9289    0.0933    0.5255 C   0  0  0  0  0  0  0  0  0  0  0  0
    2.2254   -0.5377    0.8908 C   0  0  0  0  0  0  0  0  0  0  0  0
    2.9481   -0.0709    1.7621 O   0  0  0  0  0  0  0  0  0  0  0  0
    2.6097   -1.6450    0.1853 N   0  0  0  0  0  0  0  0  0  0  0  0
    1.5158    1.9987    1.3610 H   0  0  0  0  0  0  0  0  0  0  0  0
   -0.6077    3.1236    0.7661 H   0  0  0  0  0  0  0  0  0  0  0  0
   -2.4006    1.8742   -0.3857 H   0  0  0  0  0  0  0  0  0  0  0  0
   -2.2485   -0.6799   -2.2264 H   0  0  0  0  0  0  0  0  0  0  0  0
   -3.3778   -0.3495   -0.8896 H   0  0  0  0  0  0  0  0  0  0  0  0
   -2.3841   -1.8053   -0.8523 H   0  0  0  0  0  0  0  0  0  0  0  0
    0.0294   -1.6774   -0.3380 H   0  0  0  0  0  0  0  0  0  0  0  0
    3.5527   -1.9681    0.3619 H   0  0  0  0  0  0  0  0  0  0  0  0
    2.2052   -1.8706   -0.7117 H   0  0  0  0  0  0  0  0  0  0  0  0
  1  2  2  0
  2  3  1  0
  3  4  2  0
  4  5  1  0
  4  6  1  0
  6  7  2  0
  7  8  1  0
  8  9  2  0
  8 10  1  0
  7  1  1  0
  1 11  1  0
  2 12  1  0
  3 13  1  0
  5 14  1  0
  5 15  1  0
  5 16  1  0
  6 17  1  0
 10 18  1  0
 10 19  1  0
M  END
>  <ofe-name>  (32) 
lig_0031

$$$$
lig_0032
     RDKit          3D

 16 16  0  0  0  0  0  0  0  0999 V2000
    1.3769    1.3954    0.3050 C   0  0  0  0  0  0  0  0  0  0  0  0
    0.1132    1.9287    0.0494 C   0  0  0  0  0  0  0  0  0  0  0  0
   -0.9739    1.0806   -0.1636 C   0  0  0  0  0  0  0  0  0  0  0  0
   -0.8052   -0.3085   -0.1307 C   0  0  0  0  0  0  0  0  0  0  0  0
   -1.9809   -1.2210   -0.3193 C   0  0  0  0  0  0  0  0  0  0  0  0
    0.4656   -0.8358    0.1410 C   0  0  0  0  0  0  0  0  0  0  0  0
    1.5592    0.0117    0.3485 C   0  0  0  0  0  0  0  0  0  0  0  0
    3.1727   -0.6562    0.6921 S   0  0  0  0  0  0  0  0  0  0  0  0
    2.2146    2.0680    0.4727 H   0  0  0  0  0  0  0  0  0  0  0  0
   -0.0247    3.0065    0.0210 H   0  0  0  0  0  0  0  0  0  0  0  0
   -1.9549    1.5111   -0.3531 H   0  0  0  0  0  0  0  0  0  0  0  0
   -2.4472   -1.4350    0.6473 H   0  0  0  0  0  0  0  0  0  0  0  0
   -2.7271   -0.7661   -0.9793 H   0  0  0  0  0  0  0  0  0  0  0  0
   -1.6722   -2.1648   -0.7809 H   0  0  0  0  0  0  0  0  0  0  0  0
    0.5958   -1.9143    0.1945 H   0  0  0  0  0  0  0  0  0  0  0  0
    3.0879   -1.7002   -0.1449 H   0  0  0  0  0  0  0  0  0  0  0  0
  1  2  2  0
  2  3  1  0
  3  4  2  0
  4  5  1  0
  4  6  1  0
  6  7  2  0
  7  8  1  0
  7  1  1  0
  1  9  1  0
  2 10  1  0
  3 11  1  0
  5 12  1  0
  5 13  1  0
  5 14  1  0
  6 15  1  0
  8 16  1  0
M  END
>  <ofe-name>  (33) 
lig_0032

$$$$
lig_0033
     RDKit          3D

 19 19  0  0  0  0  0  0  0  0999 V2000
    0.5831    1.6420   -0.0455 C   0  0  0  0  0  0  0  0  0  0  0  0
   -0.7472    1.8815   -0.3880 C   0  0  0  0  0  0  0  0  0  0  0  0
   -1.6732    0.8389   -0.3705 C   0  0  0  0  0  0  0  0  0  0  0  0
   -1.2790   -0.4521   -0.0026 C   0  0  0  0  0  0  0  0  0  0  0  0
   -2.2665   -1.5813   -0.0211 C   0  0  0  0  0  0  0  0  0  0  0  0
    0.0630   -0.6885    0.3259 C   0  0  0  0  0  0  0  0  0  0  0  0
    1.0023    0.3550    0.3183 C   0  0  0  0  0  0  0  0  0  0  0  0
    2.4432    0.0905    0.6674 C   0  0  0  0  0  0  0  0  0  0  0  0
    3.4632   -0.1734   -0.8084 S   0  0  0  0  0  0  0  0  0  0  0  0
    1.2955    2.4640   -0.0733 H   0  0  0  0  0  0  0  0  0  0  0  0
   -1.0616    2.8815   -0.6756 H   0  0  0  0  0  0  0  0  0  0  0  0
   -2.7052    1.0401   -0.6487 H   0  0  0  0  0  0  0  0  0  0  0  0
   -3.2760   -1.2218    0.2047 H   0  0  0  0  0  0  0  0  0  0  0  0
   -2.2725   -2.0568   -1.0067 H   0  0  0  0  0  0  0  0  0  0  0  0
   -2.0138   -2.3332    0.7339 H   0  0  0  0  0  0  0  0  0  0  0  0
    0.3783   -1.6962    0.5909 H   0  0  0  0  0  0  0  0  0  0  0  0
    2.8524    0.9308    1.2391 H   0  0  0  0  0  0  0  0  0  0  0  0
    2.5218   -0.7934    1.3099 H   0  0  0  0  0  0  0  0  0  0  0  0
    2.6921   -1.1275   -1.3496 H   0  0  0  0  0  0  0  0  0  0  0  0
  1  2  1  0
  2  3  2  0
  3  4  1  0
  4  5  1  0
  4  6  2  0
  6  7  1  0
  7  8  1  0
  8  9  1  0
  7  1  2  0
  1 10  1  0
  2 11  1  0
  3 12  1  0
  5 13  1  0
  5 14  1  0
  5 15  1  0
  6 16  1  0
  8 17  1  0
  8 18  1  0
  9 19  1  0
M  END
>  <ofe-name>  (34) 
lig_0033

$$$$
lig_0034
     RDKit          3D

 27 27  0  0  0  0  0  0  0  0999 V2000
    0.1860   -0.4202   -1.6666 C   0  0  0  0  0  0  0  0  0  0  0  0
    1.5046   -0.4527   -2.1301 C   0  0  0  0  0  0  0  0  0  0  0  0
    2.5606   -0.1691   -1.2690 C   0  0  0  0  0  0  0  0  0  0  0  0
    2.3079    0.1398    0.0680 C   0  0  0  0  0  0  0  0  0  0  0  0
    3.4353    0.4800    0.9971 C   0  0  0  0  0  0  0  0  0  0  0  0
    0.9795    0.1843    0.5192 C   0  0  0  0  0  0  0  0  0  0  0  0
   -0.1091   -0.0989   -0.3322 C   0  0  0  0  0  0  0  0  0  0  0  0
   -1.5479   -0.0454    0.2111 C   0  0  0  0  0  0  0  0  0  0  0  0
   -2.6267   -0.3861   -0.8420 C   0  0  0  0  0  0  0  0  0  0  0  0
   -1.8531    1.3752    0.7333 C   0  0  0  0  0  0  0  0  0  0  0  0
   -1.7049   -1.0566    1.3674 C   0  0  0  0  0  0  0  0  0  0  0  0
   -0.5986   -0.6495   -2.3819 H   0  0  0  0  0  0  0  0  0  0  0  0
    1.7053   -0.6984   -3.1698 H   0  0  0  0  0  0  0  0  0  0  0  0
    3.5794   -0.1918   -1.6477 H   0  0  0  0  0  0  0  0  0  0  0  0
    4.3576   -0.0285    0.6971 H   0  0  0  0  0  0  0  0  0  0  0  0
    3.2074    0.1608    2.0196 H   0  0  0  0  0  0  0  0  0  0  0  0
    3.6104    1.5602    0.9930 H   0  0  0  0  0  0  0  0  0  0  0  0
    0.7974    0.4459    1.5600 H   0  0  0  0  0  0  0  0  0  0  0  0
   -2.6050    0.3158   -1.6838 H   0  0  0  0  0  0  0  0  0  0  0  0
   -2.4973   -1.3999   -1.2388 H   0  0  0  0  0  0  0  0  0  0  0  0
   -3.6325   -0.3364   -0.4077 H   0  0  0  0  0  0  0  0  0  0  0  0
   -1.7212    2.1230   -0.0577 H   0  0  0  0  0  0  0  0  0  0  0  0
   -1.2014    1.6597    1.5666 H   0  0  0  0  0  0  0  0  0  0  0  0
   -2.8855    1.4502    1.0944 H   0  0  0  0  0  0  0  0  0  0  0  0
   -1.4644   -2.0741    1.0369 H   0  0  0  0  0  0  0  0  0  0  0  0
   -2.7326   -1.0641    1.7491 H   0  0  0  0  0  0  0  0  0  0  0  0
   -1.0510   -0.8230    2.2146 H   0  0  0  0  0  0  0  0  0  0  0  0
  1  2  1  0
  2  3  2  0
  3  4  1  0
  4  5  1  0
  4  6  2  0
  6  7  1  0
  7  8  1  0
  8  9  1  0
  8 10  1  0
  8 11  1  0
  7  1  2  0
  1 12  1  0
  2 13  1  0
  3 14  1  0
  5 15  1  0
  5 16  1  0
  5 17  1  0
  6 18  1  0
  9 19  1  0
  9 20  1  0
  9 21  1  0
 10 22  1  0
 10 23  1  0
 10 24  1  0
 11 25  1  0
 11 26  1  0
 11 27  1  0
M  END
>  <ofe-name>  (35) 
lig_0034

$$$$
lig_0035
     RDKit          3D

 19 19  0  0  0  0  0  0  0  0999 V2000
    0.8682    1.1251   -0.0901 C   0  0  0  0  0  0  0  0  0  0  0  0
   -0.3374    1.8308   -0.0531 C   0  0  0  0  0  0  0  0  0  0  0  0
   -1.5503    1.1490    0.0466 C   0  0  0  0  0  0  0  0  0  0  0  0
   -1.5692   -0.2469    0.1212 C   0  0  0  0  0  0  0  0  0  0  0  0
   -2.8695   -0.9900    0.1944 C   0  0  0  0  0  0  0  0  0  0  0  0
   -0.3554   -0.9456    0.0684 C   0  0  0  0  0  0  0  0  0  0  0  0
    0.8643   -0.2683   -0.0318 C   0  0  0  0  0  0  0  0  0  0  0  0
    1.9663   -1.0786   -0.0658 O   0  0  0  0  0  0  0  0  0  0  0  0
    3.2314   -0.4376   -0.1652 C   0  0  0  0  0  0  0  0  0  0  0  0
    1.7889    1.6927   -0.1687 H   0  0  0  0  0  0  0  0  0  0  0  0
   -0.3306    2.9166   -0.1051 H   0  0  0  0  0  0  0  0  0  0  0  0
   -2.4796    1.7137    0.0666 H   0  0  0  0  0  0  0  0  0  0  0  0
   -3.6308   -0.3958    0.7108 H   0  0  0  0  0  0  0  0  0  0  0  0
   -2.7540   -1.9248    0.7529 H   0  0  0  0  0  0  0  0  0  0  0  0
   -3.2256   -1.2214   -0.8141 H   0  0  0  0  0  0  0  0  0  0  0  0
   -0.3517   -2.0329    0.1063 H   0  0  0  0  0  0  0  0  0  0  0  0
    4.0003   -1.2160   -0.1788 H   0  0  0  0  0  0  0  0  0  0  0  0
    3.4200    0.2012    0.7040 H   0  0  0  0  0  0  0  0  0  0  0  0
    3.3149    0.1288   -1.0987 H   0  0  0  0  0  0  0  0  0  0  0  0
  1  2  2  0
  2  3  1  0
  3  4  2  0
  4  5  1  0
  4  6  1  0
  6  7  2  0
  7  8  1  0
  8  9  1  0
  7  1  1  0
  1 10  1  0
  2 11  1  0
  3 12  1  0
  5 13  1  0
  5 14  1  0
  5 15  1  0
  6 16  1  0
  9 17  1  0
  9 18  1  0
  9 19  1  0
M  END
>  <ofe-name>  (36) 
lig_0035

$$$$
lig_0036
     RDKit          3D

 22 22  0  0  0  0  0  0  0  0999 V2000
   -0.1304   -1.1510    0.1135 C   0  0  0  0  0  0  0  0  0  0  0  0
    1.1245   -1.7258   -0.1071 C   0  0  0  0  0  0  0  0  0  0  0  0
    2.2265   -0.9226   -0.4003 C   0  0  0  0  0  0  0  0  0  0  0  0
    2.0858    0.4662   -0.4682 C   0  0  0  0  0  0  0  0  0  0  0  0
    3.2554    1.3361   -0.8194 C   0  0  0  0  0  0  0  0  0  0  0  0
    0.8197    1.0303   -0.2599 C   0  0  0  0  0  0  0  0  0  0  0  0
   -0.2894    0.2318    0.0403 C   0  0  0  0  0  0  0  0  0  0  0  0
   -1.4531    0.9260    0.2198 O   0  0  0  0  0  0  0  0  0  0  0  0
   -2.6114    0.2248    0.6677 C   0  0  0  0  0  0  0  0  0  0  0  0
   -3.4123   -0.3015   -0.5106 C   0  0  0  0  0  0  0  0  0  0  0  0
   -0.9606   -1.8147    0.3265 H   0  0  0  0  0  0  0  0  0  0  0  0
    1.2414   -2.8053   -0.0555 H   0  0  0  0  0  0  0  0  0  0  0  0
    3.1937   -1.3874   -0.5769 H   0  0  0  0  0  0  0  0  0  0  0  0
    3.3079    1.4727   -1.9038 H   0  0  0  0  0  0  0  0  0  0  0  0
    4.1932    0.8889   -0.4734 H   0  0  0  0  0  0  0  0  0  0  0  0
    3.1689    2.3179   -0.3420 H   0  0  0  0  0  0  0  0  0  0  0  0
    0.6878    2.1082   -0.3286 H   0  0  0  0  0  0  0  0  0  0  0  0
   -3.2272    0.9563    1.2035 H   0  0  0  0  0  0  0  0  0  0  0  0
   -2.3753   -0.5579    1.3970 H   0  0  0  0  0  0  0  0  0  0  0  0
   -2.8399   -1.0316   -1.0903 H   0  0  0  0  0  0  0  0  0  0  0  0
   -3.6686    0.5147   -1.1942 H   0  0  0  0  0  0  0  0  0  0  0  0
   -4.3364   -0.7761   -0.1684 H   0  0  0  0  0  0  0  0  0  0  0  0
  1  2  2  0
  2  3  1  0
  3  4  2  0
  4  5  1  0
  4  6  1  0
  6  7  2  0
  7  8  1  0
  8  9  1  0
  9 10  1  0
  7  1  1  0
  1 11  1  0
  2 12  1  0
  3 13  1  0
  5 14  1  0
  5 15  1  0
  5 16  1  0
  6 17  1  0
  9 18  1  0
  9 19  1  0
 10 20  1  0
 10 21  1  0
 10 22  1  0
M  END
>  <ofe-name>  (37) 
lig_0036

$$$$
lig_0037
     RDKit          3D

 22 22  0  0  0  0  0  0  0  0999 V2000
    0.1059    1.6778    0.9069 C   0  0  0  0  0  0  0  0  0  0  0  0
    1.4395    2.0835    0.8261 C   0  0  0  0  0  0  0  0  0  0  0  0
    2.3896    1.2450    0.2479 C   0  0  0  0  0  0  0  0  0  0  0  0
    2.0135   -0.0088   -0.2435 C   0  0  0  0  0  0  0  0  0  0  0  0
    3.0241   -0.9049   -0.8976 C   0  0  0  0  0  0  0  0  0  0  0  0
    0.6665   -0.4017   -0.1710 C   0  0  0  0  0  0  0  0  0  0  0  0
   -0.2939    0.4324    0.4064 C   0  0  0  0  0  0  0  0  0  0  0  0
   -1.6606    0.1025    0.5220 N   0  0  0  0  0  0  0  0  0  0  0  0
   -2.2891   -1.0540    0.0972 C   0  0  0  0  0  0  0  0  0  0  0  0
   -1.7784   -2.0062   -0.4811 O   0  0  0  0  0  0  0  0  0  0  0  0
   -3.7681   -1.0390    0.3955 C   0  0  0  0  0  0  0  0  0  0  0  0
   -0.6131    2.3528    1.3627 H   0  0  0  0  0  0  0  0  0  0  0  0
    1.7371    3.0550    1.2119 H   0  0  0  0  0  0  0  0  0  0  0  0
    3.4244    1.5735    0.1833 H   0  0  0  0  0  0  0  0  0  0  0  0
    3.0382   -0.7270   -1.9773 H   0  0  0  0  0  0  0  0  0  0  0  0
    4.0269   -0.7231   -0.4969 H   0  0  0  0  0  0  0  0  0  0  0  0
    2.7877   -1.9582   -0.7136 H   0  0  0  0  0  0  0  0  0  0  0  0
    0.3942   -1.3720   -0.5757 H   0  0  0  0  0  0  0  0  0  0  0  0
   -2.2450    0.8013    0.9623 H   0  0  0  0  0  0  0  0  0  0  0  0
   -3.9662   -0.5774    1.3672 H   0  0  0  0  0  0  0  0  0  0  0  0
   -4.2902   -0.4851   -0.3890 H   0  0  0  0  0  0  0  0  0  0  0  0
   -4.1431   -2.0661    0.4260 H   0  0  0  0  0  0  0  0  0  0  0  0
  1  2  2  0
  2  3  1  0
  3  4  2  0
  4  5  1  0
  4  6  1  0
  6  7  2  0
  7  8  1  0
  8  9  1  0
  9 10  2  0
  9 11  1  0
  7  1  1  0
  1 12  1  0
  2 13  1  0
  3 14  1  0
  5 15  1  0
  5 16  1  0
  5 17  1  0
  6 18  1  0
  8 19  1  0
 11 20  1  0
 11 21  1  0
 11 22  1  0
M  END
>  <ofe-name>  (38) 
lig_0037

$$$$
lig_0038
     RDKit          3D

 25 26  0  0  0  0  0  0  0  0999 V2000
    0.6862    1.1060   -1.3162 C   0  0  0  0  0  0  0  0  0  0  0  0
    2.0548    1.3441   -1.4581 C   0  0  0  0  0  0  0  0  0  0  0  0
    2.9638    0.7322   -0.5971 C   0  0  0  0  0  0  0  0  0  0  0  0
    2.5131   -0.1312    0.4058 C   0  0  0  0  0  0  0  0  0  0  0  0
    3.4836   -0.7632    1.3590 C   0  0  0  0  0  0  0  0  0  0  0  0
    1.1346   -0.3524    0.5477 C   0  0  0  0  0  0  0  0  0  0  0  0
    0.2010    0.2556   -0.3103 C   0  0  0  0  0  0  0  0  0  0  0  0
   -1.2424    0.0095   -0.1563 C   0  0  0  0  0  0  0  0  0  0  0  0
   -2.1479    1.0745   -0.0166 C   0  0  0  0  0  0  0  0  0  0  0  0
   -3.5181    0.8416    0.1303 C   0  0  0  0  0  0  0  0  0  0  0  0
   -4.0066   -0.4625    0.1387 C   0  0  0  0  0  0  0  0  0  0  0  0
   -3.1266   -1.5328    0.0011 C   0  0  0  0  0  0  0  0  0  0  0  0
   -1.7566   -1.2980   -0.1445 C   0  0  0  0  0  0  0  0  0  0  0  0
   -0.0054    1.5853   -2.0060 H   0  0  0  0  0  0  0  0  0  0  0  0
    2.4107    2.0078   -2.2416 H   0  0  0  0  0  0  0  0  0  0  0  0
    4.0263    0.9326   -0.7143 H   0  0  0  0  0  0  0  0  0  0  0  0
    3.1229   -1.7426    1.6906 H   0  0  0  0  0  0  0  0  0  0  0  0
    4.4558   -0.9210    0.8802 H   0  0  0  0  0  0  0  0  0  0  0  0
    3.6206   -0.1208    2.2342 H   0  0  0  0  0  0  0  0  0  0  0  0
    0.7802   -1.0007    1.3477 H   0  0  0  0  0  0  0  0  0  0  0  0
   -1.7855    2.1006   -0.0091 H   0  0  0  0  0  0  0  0  0  0  0  0
   -4.2013    1.6795    0.2406 H   0  0  0  0  0  0  0  0  0  0  0  0
   -5.0719   -0.6443    0.2524 H   0  0  0  0  0  0  0  0  0  0  0  0
   -3.5042   -2.5519    0.0040 H   0  0  0  0  0  0  0  0  0  0  0  0
   -1.0871   -2.1478   -0.2621 H   0  0  0  0  0  0  0  0  0  0  0  0
  1  2  2  0
  2  3  1  0
  3  4  2  0
  4  5  1  0
  4  6  1  0
  6  7  2  0
  7  8  1  0
  8  9  2  0
  9 10  1  0
 10 11  2  0
 11 12  1  0
 12 13  2  0
  7  1  1  0
 13  8  1  0
  1 14  1  0
  2 15  1  0
  3 16  1  0
  5 17  1  0
  5 18  1  0
  5 19  1  0
  6 20  1  0
  9 21  1  0
 10 22  1  0
 11 23  1  0
 12 24  1  0
 13 25  1  0
M  END
>  <ofe-name>  (39) 
lig_0038

$$$$
lig_0039
     RDKit          3D

 24 24  0  0  0  0  0  0  0  0999 V2000
   -0.9163   -0.0262   -1.8378 C   0  0  0  0  0  0  0  0  0  0  0  0
    0.3917    0.1432   -2.2909 C   0  0  0  0  0  0  0  0  0  0  0  0
    1.4663   -0.1095   -1.4388 C   0  0  0  0  0  0  0  0  0  0  0  0
    1.2429   -0.5372   -0.1246 C   0  0  0  0  0  0  0  0  0  0  0  0
    2.4023   -0.7894    0.8048 C   0  0  0  0  0  0  0  0  0  0  0  0
    2.7844    0.4596    1.5841 C   0  0  0  0  0  0  0  0  0  0  0  0
   -0.0758   -0.6988    0.3246 C   0  0  0  0  0  0  0  0  0  0  0  0
   -1.1623   -0.4531   -0.5273 C   0  0  0  0  0  0  0  0  0  0  0  0
   -2.5754   -0.6155   -0.0288 C   0  0  0  0  0  0  0  0  0  0  0  0
   -3.1044    0.6655    0.5980 C   0  0  0  0  0  0  0  0  0  0  0  0
   -1.7438    0.1799   -2.5126 H   0  0  0  0  0  0  0  0  0  0  0  0
    0.5738    0.4760   -3.3093 H   0  0  0  0  0  0  0  0  0  0  0  0
    2.4803    0.0323   -1.8052 H   0  0  0  0  0  0  0  0  0  0  0  0
    3.2658   -1.1460    0.2300 H   0  0  0  0  0  0  0  0  0  0  0  0
    2.1475   -1.5977    1.5011 H   0  0  0  0  0  0  0  0  0  0  0  0
    1.9500    0.8162    2.1975 H   0  0  0  0  0  0  0  0  0  0  0  0
    3.6277    0.2476    2.2490 H   0  0  0  0  0  0  0  0  0  0  0  0
    3.0783    1.2729    0.9118 H   0  0  0  0  0  0  0  0  0  0  0  0
   -0.2585   -1.0174    1.3491 H   0  0  0  0  0  0  0  0  0  0  0  0
   -3.2269   -0.9191   -0.8573 H   0  0  0  0  0  0  0  0  0  0  0  0
   -2.6165   -1.4312    0.7033 H   0  0  0  0  0  0  0  0  0  0  0  0
   -3.1077    1.4891   -0.1241 H   0  0  0  0  0  0  0  0  0  0  0  0
   -4.1305    0.5188    0.9498 H   0  0  0  0  0  0  0  0  0  0  0  0
   -2.4929    0.9715    1.4535 H   0  0  0  0  0  0  0  0  0  0  0  0
  1  2  2  0
  2  3  1  0
  3  4  2  0
  4  5  1  0
  5  6  1  0
  4  7  1  0
  7  8  2  0
  8  9  1  0
  9 10  1  0
  8  1  1  0
  1 11  1  0
  2 12  1  0
  3 13  1  0
  5 14  1  0
  5 15  1  0
  6 16  1  0
  6 17  1  0
  6 18  1  0
  7 19  1  0
  9 20  1  0
  9 21  1  0
 10 22  1  0
 10 23  1  0
 10 24  1  0
M  END
>  <ofe-name>  (40) 
lig_0039

$$$$
lig_0040
     RDKit          3D

 27 27  0  0  0  0  0  0  0  0999 V2000
    0.4439    1.1049   -1.7073 C   0  0  0  0  0  0  0  0  0  0  0  0
   -0.7731    1.0489   -2.3860 C   0  0  0  0  0  0  0  0  0  0  0  0
   -1.8655    0.3986   -1.8125 C   0  0  0  0  0  0  0  0  0  0  0  0
   -1.7490   -0.2087   -0.5565 C   0  0  0  0  0  0  0  0  0  0  0  0
   -2.9321   -0.9007    0.0706 C   0  0  0  0  0  0  0  0  0  0  0  0
   -3.7541    0.0498    0.9276 C   0  0  0  0  0  0  0  0  0  0  0  0
   -0.5236   -0.1415    0.1220 C   0  0  0  0  0  0  0  0  0  0  0  0
    0.5779    0.5164   -0.4441 C   0  0  0  0  0  0  0  0  0  0  0  0
    1.8970    0.5643    0.2857 C   0  0  0  0  0  0  0  0  0  0  0  0
    2.7733   -0.6425   -0.0519 C   0  0  0  0  0  0  0  0  0  0  0  0
    4.1013   -0.5880    0.6865 C   0  0  0  0  0  0  0  0  0  0  0  0
    1.2877    1.6119   -2.1692 H   0  0  0  0  0  0  0  0  0  0  0  0
   -0.8705    1.5129   -3.3638 H   0  0  0  0  0  0  0  0  0  0  0  0
   -2.8089    0.3669   -2.3524 H   0  0  0  0  0  0  0  0  0  0  0  0
   -3.5650   -1.3339   -0.7135 H   0  0  0  0  0  0  0  0  0  0  0  0
   -2.5855   -1.7441    0.6802 H   0  0  0  0  0  0  0  0  0  0  0  0
   -4.1432    0.8841    0.3341 H   0  0  0  0  0  0  0  0  0  0  0  0
   -3.1549    0.4687    1.7432 H   0  0  0  0  0  0  0  0  0  0  0  0
   -4.6051   -0.4785    1.3689 H   0  0  0  0  0  0  0  0  0  0  0  0
   -0.4260   -0.6063    1.1012 H   0  0  0  0  0  0  0  0  0  0  0  0
    1.7131    0.6083    1.3668 H   0  0  0  0  0  0  0  0  0  0  0  0
    2.4204    1.4949    0.0318 H   0  0  0  0  0  0  0  0  0  0  0  0
    2.2542   -1.5721    0.2113 H   0  0  0  0  0  0  0  0  0  0  0  0
    2.9640   -0.6808   -1.1313 H   0  0  0  0  0  0  0  0  0  0  0  0
    4.6633    0.3119    0.4171 H   0  0  0  0  0  0  0  0  0  0  0  0
    3.9477   -0.5863    1.7703 H   0  0  0  0  0  0  0  0  0  0  0  0
    4.7128   -1.4593    0.4315 H   0  0  0  0  0  0  0  0  0  0  0  0
  1  2  1  0
  2  3  2  0
  3  4  1  0
  4  5  1  0
  5  6  1  0
  4  7  2  0
  7  8  1  0
  8  9  1  0
  9 10  1  0
 10 11  1  0
  8  1  2  0
  1 12  1  0
  2 13  1  0
  3 14  1  0
  5 15  1  0
  5 16  1  0
  6 17  1  0
  6 18  1  0
  6 19  1  0
  7 20  1  0
  9 21  1  0
  9 22  1  0
 10 23  1  0
 10 24  1  0
 11 25  1  0
 11 26  1  0
 11 27  1  0
M  END
>  <ofe-name>  (41) 
lig_0040

$$$$
lig_0041
     RDKit          3D

 19 19  0  0  0  0  0  0  0  0999 V2000
   -2.3693   -0.7460    0.1985 C   0  0  0  0  0  0  0  0  0  0  0  0
   -1.4315   -1.7567   -0.0026 C   0  0  0  0  0  0  0  0  0  0  0  0
   -0.1041   -1.4310   -0.2885 C   0  0  0  0  0  0  0  0  0  0  0  0
    0.2957   -0.0898   -0.3804 C   0  0  0  0  0  0  0  0  0  0  0  0
    1.7330    0.2588   -0.6719 C   0  0  0  0  0  0  0  0  0  0  0  0
    2.5519    0.3936    0.6027 C   0  0  0  0  0  0  0  0  0  0  0  0
   -0.6532    0.9212   -0.1700 C   0  0  0  0  0  0  0  0  0  0  0  0
   -1.9744    0.5833    0.1147 C   0  0  0  0  0  0  0  0  0  0  0  0
   -2.9231    1.5413    0.3220 O   0  0  0  0  0  0  0  0  0  0  0  0
   -3.4030   -0.9934    0.4217 H   0  0  0  0  0  0  0  0  0  0  0  0
   -1.7341   -2.7982    0.0650 H   0  0  0  0  0  0  0  0  0  0  0  0
    0.6180   -2.2307   -0.4386 H   0  0  0  0  0  0  0  0  0  0  0  0
    2.1757   -0.5096   -1.3174 H   0  0  0  0  0  0  0  0  0  0  0  0
    1.7771    1.1950   -1.2418 H   0  0  0  0  0  0  0  0  0  0  0  0
    2.1526    1.1817    1.2501 H   0  0  0  0  0  0  0  0  0  0  0  0
    2.5546   -0.5409    1.1739 H   0  0  0  0  0  0  0  0  0  0  0  0
    3.5891    0.6464    0.3611 H   0  0  0  0  0  0  0  0  0  0  0  0
   -0.3502    1.9622   -0.2296 H   0  0  0  0  0  0  0  0  0  0  0  0
   -2.5048    2.4127    0.2311 H   0  0  0  0  0  0  0  0  0  0  0  0
  1  2  2  0
  2  3  1  0
  3  4  2  0
  4  5  1  0
  5  6  1  0
  4  7  1  0
  7  8  2  0
  8  9  1  0
  8  1  1  0
  1 10  1  0
  2 11  1  0
  3 12  1  0
  5 13  1  0
  5 14  1  0
  6 15  1  0
  6 16  1  0
  6 17  1  0
  7 18  1  0
  9 19  1  0
M  END
>  <ofe-name>  (42) 
lig_0041

$$$$
lig_0042
     RDKit          3D

 22 22  0  0  0  0  0  0  0  0999 V2000
   -1.5833   -1.1029   -0.7637 C   0  0  0  0  0  0  0  0  0  0  0  0
   -0.4984   -1.4714   -1.5595 C   0  0  0  0  0  0  0  0  0  0  0  0
    0.7155   -0.7958   -1.4440 C   0  0  0  0  0  0  0  0  0  0  0  0
    0.8534    0.2605   -0.5362 C   0  0  0  0  0  0  0  0  0  0  0  0
    2.1687    0.9841   -0.4006 C   0  0  0  0  0  0  0  0  0  0  0  0
    3.0601    0.3441    0.6525 C   0  0  0  0  0  0  0  0  0  0  0  0
   -0.2418    0.6185    0.2647 C   0  0  0  0  0  0  0  0  0  0  0  0
   -1.4658   -0.0630    0.1675 C   0  0  0  0  0  0  0  0  0  0  0  0
   -2.6353    0.3767    1.0088 C   0  0  0  0  0  0  0  0  0  0  0  0
   -3.5127   -0.7085    1.2826 O   0  0  0  0  0  0  0  0  0  0  0  0
   -2.5252   -1.6385   -0.8654 H   0  0  0  0  0  0  0  0  0  0  0  0
   -0.6012   -2.2881   -2.2689 H   0  0  0  0  0  0  0  0  0  0  0  0
    1.5535   -1.0983   -2.0674 H   0  0  0  0  0  0  0  0  0  0  0  0
    2.6862    0.9942   -1.3676 H   0  0  0  0  0  0  0  0  0  0  0  0
    1.9867    2.0348   -0.1438 H   0  0  0  0  0  0  0  0  0  0  0  0
    4.0065    0.8887    0.7289 H   0  0  0  0  0  0  0  0  0  0  0  0
    2.5820    0.3550    1.6379 H   0  0  0  0  0  0  0  0  0  0  0  0
    3.2872   -0.6974    0.4011 H   0  0  0  0  0  0  0  0  0  0  0  0
   -0.1374    1.4368    0.9749 H   0  0  0  0  0  0  0  0  0  0  0  0
   -3.1938    1.1556    0.4795 H   0  0  0  0  0  0  0  0  0  0  0  0
   -2.2867    0.7724    1.9686 H   0  0  0  0  0  0  0  0  0  0  0  0
   -4.2182   -0.3577    1.8503 H   0  0  0  0  0  0  0  0  0  0  0  0
  1  2  2  0
  2  3  1  0
  3  4  2  0
  4  5  1  0
  5  6  1  0
  4  7  1  0
  7  8  2  0
  8  9  1  0
  9 10  1  0
  8  1  1  0
  1 11  1  0
  2 12  1  0
  3 13  1  0
  5 14  1  0
  5 15  1  0
  6 16  1  0
  6 17  1  0
  6 18  1  0
  7 19  1  0
  9 20  1  0
  9 21  1  0
 10 22  1  0
M  END
>  <ofe-name>  (43) 
lig_0042

$$$$
lig_0043
     RDKit          3D

 20 20  0  0  0  0  0  0  0  0999 V2000
    2.0977    0.9674    0.3793 C   0  0  0  0  0  0  0  0  0  0  0  0
    1.0940    1.7907    0.8930 C   0  0  0  0  0  0  0  0  0  0  0  0
   -0.2037    1.3031    1.0374 C   0  0  0  0  0  0  0  0  0  0  0  0
   -0.5095   -0.0075    0.6545 C   0  0  0  0  0  0  0  0  0  0  0  0
   -1.9214   -0.5246    0.7559 C   0  0  0  0  0  0  0  0  0  0  0  0
   -2.7140   -0.2603   -0.5151 C   0  0  0  0  0  0  0  0  0  0  0  0
    0.5100   -0.8206    0.1342 C   0  0  0  0  0  0  0  0  0  0  0  0
    1.8274   -0.3605    0.0431 C   0  0  0  0  0  0  0  0  0  0  0  0
    2.8064   -1.1432   -0.5822 N   0  0  0  0  0  0  0  0  0  0  0  0
    3.0958    1.3741    0.2427 H   0  0  0  0  0  0  0  0  0  0  0  0
    1.3223    2.8175    1.1655 H   0  0  0  0  0  0  0  0  0  0  0  0
   -0.9787    1.9572    1.4299 H   0  0  0  0  0  0  0  0  0  0  0  0
   -1.9055   -1.6010    0.9660 H   0  0  0  0  0  0  0  0  0  0  0  0
   -2.4251   -0.0568    1.6107 H   0  0  0  0  0  0  0  0  0  0  0  0
   -3.7334   -0.6456   -0.4123 H   0  0  0  0  0  0  0  0  0  0  0  0
   -2.2524   -0.7484   -1.3801 H   0  0  0  0  0  0  0  0  0  0  0  0
   -2.7765    0.8122   -0.7285 H   0  0  0  0  0  0  0  0  0  0  0  0
    0.2699   -1.8259   -0.2035 H   0  0  0  0  0  0  0  0  0  0  0  0
    2.6420   -2.1413   -0.4997 H   0  0  0  0  0  0  0  0  0  0  0  0
    3.7549   -0.8864   -0.3282 H   0  0  0  0  0  0  0  0  0  0  0  0
  1  2  2  0
  2  3  1  0
  3  4  2  0
  4  5  1  0
  5  6  1  0
  4  7  1  0
  7  8  2  0
  8  9  1  0
  8  1  1  0
  1 10  1  0
  2 11  1  0
  3 12  1  0
  5 13  1  0
  5 14  1  0
  6 15  1  0
  6 16  1  0
  6 17  1  0
  7 18  1  0
  9 19  1  0
  9 20  1  0
M  END
>  <ofe-name>  (44) 
lig_0043

$$$$
lig_0044
     RDKit          3D

 23 23  0  0  0  0  0  0  0  0999 V2000
    1.2708    1.4923   -0.7894 C   0  0  0  0  0  0  0  0  0  0  0  0
    0.0792    1.8057   -1.4443 C   0  0  0  0  0  0  0  0  0  0  0  0
   -1.1175    1.2106   -1.0454 C   0  0  0  0  0  0  0  0  0  0  0  0
   -1.1354    0.2978    0.0155 C   0  0  0  0  0  0  0  0  0  0  0  0
   -2.4221   -0.3659    0.4340 C   0  0  0  0  0  0  0  0  0  0  0  0
   -2.6548   -1.6700   -0.3133 C   0  0  0  0  0  0  0  0  0  0  0  0
    0.0678   -0.0152    0.6639 C   0  0  0  0  0  0  0  0  0  0  0  0
    1.2783    0.5789    0.2727 C   0  0  0  0  0  0  0  0  0  0  0  0
    2.5607    0.2361    0.9863 C   0  0  0  0  0  0  0  0  0  0  0  0
    2.9242   -1.1625    0.7907 N   0  0  0  0  0  0  0  0  0  0  0  0
    2.1936    1.9655   -1.1159 H   0  0  0  0  0  0  0  0  0  0  0  0
    0.0832    2.5135   -2.2690 H   0  0  0  0  0  0  0  0  0  0  0  0
   -2.0369    1.4606   -1.5695 H   0  0  0  0  0  0  0  0  0  0  0  0
   -3.2631    0.3162    0.2595 H   0  0  0  0  0  0  0  0  0  0  0  0
   -2.4049   -0.5552    1.5142 H   0  0  0  0  0  0  0  0  0  0  0  0
   -3.5948   -2.1286    0.0097 H   0  0  0  0  0  0  0  0  0  0  0  0
   -1.8466   -2.3851   -0.1261 H   0  0  0  0  0  0  0  0  0  0  0  0
   -2.7122   -1.5036   -1.3943 H   0  0  0  0  0  0  0  0  0  0  0  0
    0.0724   -0.7378    1.4789 H   0  0  0  0  0  0  0  0  0  0  0  0
    2.4439    0.4423    2.0563 H   0  0  0  0  0  0  0  0  0  0  0  0
    3.3779    0.8725    0.6276 H   0  0  0  0  0  0  0  0  0  0  0  0
    2.9803   -1.3474   -0.2099 H   0  0  0  0  0  0  0  0  0  0  0  0
    3.8558   -1.3207    1.1676 H   0  0  0  0  0  0  0  0  0  0  0  0
  1  2  2  0
  2  3  1  0
  3  4  2  0
  4  5  1  0
  5  6  1  0
  4  7  1  0
  7  8  2  0
  8  9  1  0
  9 10  1  0
  8  1  1  0
  1 11  1  0
  2 12  1  0
  3 13  1  0
  5 14  1  0
  5 15  1  0
  6 16  1  0
  6 17  1  0
  6 18  1  0
  7 19  1  0
  9 20  1  0
  9 21  1  0
 10 22  1  0
 10 23  1  0
M  END
>  <ofe-name>  (45) 
lig_0044

$$$$
lig_0045
     RDKit          3D

 18 18  0  0  0  0  0  0  0  0999 V2000
   -2.5745    0.2353   -0.2172 C   0  0  0  0  0  0  0  0  0  0  0  0
   -1.9502   -0.9215   -0.6795 C   0  0  0  0  0  0  0  0  0  0  0  0
   -0.5944   -1.1357   -0.4157 C   0  0  0  0  0  0  0  0  0  0  0  0
    0.1484   -0.1973    0.3168 C   0  0  0  0  0  0  0  0  0  0  0  0
    1.6143   -0.4217    0.5853 C   0  0  0  0  0  0  0  0  0  0  0  0
    2.4863    0.1527   -0.5206 C   0  0  0  0  0  0  0  0  0  0  0  0
   -0.4876    0.9653    0.7711 C   0  0  0  0  0  0  0  0  0  0  0  0
   -1.8377    1.1682    0.5025 C   0  0  0  0  0  0  0  0  0  0  0  0
   -2.4367    2.2824    0.9437 F   0  0  0  0  0  0  0  0  0  0  0  0
   -3.6259    0.4167   -0.4141 H   0  0  0  0  0  0  0  0  0  0  0  0
   -2.5165   -1.6561   -1.2462 H   0  0  0  0  0  0  0  0  0  0  0  0
   -0.1185   -2.0415   -0.7866 H   0  0  0  0  0  0  0  0  0  0  0  0
    1.8094   -1.4958    0.6913 H   0  0  0  0  0  0  0  0  0  0  0  0
    1.8871    0.0322    1.5458 H   0  0  0  0  0  0  0  0  0  0  0  0
    3.5435   -0.0243   -0.2994 H   0  0  0  0  0  0  0  0  0  0  0  0
    2.3373    1.2330   -0.6234 H   0  0  0  0  0  0  0  0  0  0  0  0
    2.2595   -0.3108   -1.4867 H   0  0  0  0  0  0  0  0  0  0  0  0
    0.0561    1.7189    1.3328 H   0  0  0  0  0  0  0  0  0  0  0  0
  1  2  2  0
  2  3  1  0
  3  4  2  0
  4  5  1  0
  5  6  1  0
  4  7  1  0
  7  8  2  0
  8  9  1  0
  8  1  1  0
  1 10  1  0
  2 11  1  0
  3 12  1  0
  5 13  1  0
  5 14  1  0
  6 15  1  0
  6 16  1  0
  6 17  1  0
  7 18  1  0
M  END
>  <ofe-name>  (46) 
lig_0045

$$$$
lig_0046
     RDKit          3D

 18 18  0  0  0  0  0  0  0  0999 V2000
    2.4240    0.8792   -0.1707 C   0  0  0  0  0  0  0  0  0  0  0  0
    1.4324    1.7186    0.3359 C   0  0  0  0  0  0  0  0  0  0  0  0
    0.1564    1.2150    0.5974 C   0  0  0  0  0  0  0  0  0  0  0  0
   -0.1396   -0.1346    0.3595 C   0  0  0  0  0  0  0  0  0  0  0  0
   -1.5222   -0.6731    0.6256 C   0  0  0  0  0  0  0  0  0  0  0  0
   -2.4204   -0.5530   -0.5959 C   0  0  0  0  0  0  0  0  0  0  0  0
    0.8614   -0.9701   -0.1561 C   0  0  0  0  0  0  0  0  0  0  0  0
    2.1342   -0.4613   -0.4156 C   0  0  0  0  0  0  0  0  0  0  0  0
    3.3557   -1.4974   -1.0458 Cl  0  0  0  0  0  0  0  0  0  0  0  0
    3.4153    1.2748   -0.3734 H   0  0  0  0  0  0  0  0  0  0  0  0
    1.6522    2.7662    0.5258 H   0  0  0  0  0  0  0  0  0  0  0  0
   -0.6084    1.8833    0.9883 H   0  0  0  0  0  0  0  0  0  0  0  0
   -1.9712   -0.1361    1.4701 H   0  0  0  0  0  0  0  0  0  0  0  0
   -1.4555   -1.7232    0.9353 H   0  0  0  0  0  0  0  0  0  0  0  0
   -2.0132   -1.1123   -1.4451 H   0  0  0  0  0  0  0  0  0  0  0  0
   -3.4158   -0.9505   -0.3742 H   0  0  0  0  0  0  0  0  0  0  0  0
   -2.5332    0.4917   -0.9050 H   0  0  0  0  0  0  0  0  0  0  0  0
    0.6478   -2.0173   -0.3561 H   0  0  0  0  0  0  0  0  0  0  0  0
  1  2  2  0
  2  3  1  0
  3  4  2  0
  4  5  1  0
  5  6  1  0
  4  7  1  0
  7  8  2  0
  8  9  1  0
  8  1  1  0
  1 10  1  0
  2 11  1  0
  3 12  1  0
  5 13  1  0
  5 14  1  0
  6 15  1  0
  6 16  1  0
  6 17  1  0
  7 18  1  0
M  END
>  <ofe-name>  (47) 
lig_0046

$$$$
lig_0047
     RDKit          3D

 18 18  0  0  0  0  0  0  0  0999 V2000
   -2.5616    0.2489   -0.1853 C   0  0  0  0  0  0  0  0  0  0  0  0
   -1.7501    1.3112   -0.5822 C   0  0  0  0  0  0  0  0  0  0  0  0
   -0.3763    1.2728   -0.3354 C   0  0  0  0  0  0  0  0  0  0  0  0
    0.2000    0.1732    0.3157 C   0  0  0  0  0  0  0  0  0  0  0  0
    1.6858    0.1251    0.5658 C   0  0  0  0  0  0  0  0  0  0  0  0
    2.4321   -0.5287   -0.5869 C   0  0  0  0  0  0  0  0  0  0  0  0
   -0.6210   -0.8942    0.7060 C   0  0  0  0  0  0  0  0  0  0  0  0
   -1.9930   -0.8495    0.4560 C   0  0  0  0  0  0  0  0  0  0  0  0
   -3.0903   -2.2940    0.9900 Br  0  0  0  0  0  0  0  0  0  0  0  0
   -3.6295    0.2861   -0.3816 H   0  0  0  0  0  0  0  0  0  0  0  0
   -2.1871    2.1697   -1.0859 H   0  0  0  0  0  0  0  0  0  0  0  0
    0.2442    2.1075   -0.6553 H   0  0  0  0  0  0  0  0  0  0  0  0
    1.8856   -0.4221    1.4952 H   0  0  0  0  0  0  0  0  0  0  0  0
    2.0664    1.1414    0.7249 H   0  0  0  0  0  0  0  0  0  0  0  0
    2.2782    0.0202   -1.5221 H   0  0  0  0  0  0  0  0  0  0  0  0
    2.0970   -1.5597   -0.7436 H   0  0  0  0  0  0  0  0  0  0  0  0
    3.5065   -0.5495   -0.3787 H   0  0  0  0  0  0  0  0  0  0  0  0
   -0.1869   -1.7583    1.2033 H   0  0  0  0  0  0  0  0  0  0  0  0
  1  2  2  0
  2  3  1  0
  3  4  2  0
  4  5  1  0
  5  6  1  0
  4  7  1  0
  7  8  2  0
  8  9  1  0
  8  1  1  0
  1 10  1  0
  2 11  1  0
  3 12  1  0
  5 13  1  0
  5 14  1  0
  6 15  1  0
  6 16  1  0
  6 17  1  0
  7 18  1  0
M  END
>  <ofe-name>  (48) 
lig_0047

$$$$
lig_0048
     RDKit          3D

 21 21  0  0  0  0  0  0  0  0999 V2000
   -1.7560   -1.4075    0.0251 C   0  0  0  0  0  0  0  0  0  0  0  0
   -0.6543   -2.1530   -0.3946 C   0  0  0  0  0  0  0  0  0  0  0  0
    0.5592   -1.5172   -0.6608 C   0  0  0  0  0  0  0  0  0  0  0  0
    0.6833   -0.1289   -0.5152 C   0  0  0  0  0  0  0  0  0  0  0  0
    2.0002    0.5534   -0.7866 C   0  0  0  0  0  0  0  0  0  0  0  0
    2.8627    0.6349    0.4635 C   0  0  0  0  0  0  0  0  0  0  0  0
   -0.4268    0.6145   -0.0862 C   0  0  0  0  0  0  0  0  0  0  0  0
   -1.6468   -0.0210    0.1822 C   0  0  0  0  0  0  0  0  0  0  0  0
   -2.8428    0.7299    0.6347 C   0  0  0  0  0  0  0  0  0  0  0  0
   -3.9329    0.2509    0.8876 O   0  0  0  0  0  0  0  0  0  0  0  0
   -2.6199    2.0513    0.7510 O   0  0  0  0  0  0  0  0  0  0  0  0
   -2.6985   -1.9108    0.2313 H   0  0  0  0  0  0  0  0  0  0  0  0
   -0.7410   -3.2303   -0.5127 H   0  0  0  0  0  0  0  0  0  0  0  0
    1.4110   -2.1129   -0.9831 H   0  0  0  0  0  0  0  0  0  0  0  0
    2.5398    0.0143   -1.5747 H   0  0  0  0  0  0  0  0  0  0  0  0
    1.8189    1.5616   -1.1788 H   0  0  0  0  0  0  0  0  0  0  0  0
    2.3620    1.2018    1.2557 H   0  0  0  0  0  0  0  0  0  0  0  0
    3.8107    1.1332    0.2373 H   0  0  0  0  0  0  0  0  0  0  0  0
    3.0887   -0.3624    0.8559 H   0  0  0  0  0  0  0  0  0  0  0  0
   -0.3350    1.6914    0.0385 H   0  0  0  0  0  0  0  0  0  0  0  0
   -3.4824    2.4066    1.0516 H   0  0  0  0  0  0  0  0  0  0  0  0
  1  2  2  0
  2  3  1  0
  3  4  2  0
  4  5  1  0
  5  6  1  0
  4  7  1  0
  7  8  2  0
  8  9  1  0
  9 10  2  0
  9 11  1  0
  8  1  1  0
  1 12  1  0
  2 13  1  0
  3 14  1  0
  5 15  1  0
  5 16  1  0
  6 17  1  0
  6 18  1  0
  6 19  1  0
  7 20  1  0
 11 21  1  0
M  END
>  <ofe-name>  (49) 
lig_0048

$$$$
lig_0049
     RDKit          3D

 22 22  0  0  0  0  0  0  0  0999 V2000
    1.5629   -0.8315   -0.9359 C   0  0  0  0  0  0  0  0  0  0  0  0
    0.5753   -1.8179   -0.9623 C   0  0  0  0  0  0  0  0  0  0  0  0
   -0.6294   -1.6233   -0.2845 C   0  0  0  0  0  0  0  0  0  0  0  0
   -0.8630   -0.4388    0.4256 C   0  0  0  0  0  0  0  0  0  0  0  0
   -2.1751   -0.2149    1.1332 C   0  0  0  0  0  0  0  0  0  0  0  0
   -3.1963    0.4604    0.2306 C   0  0  0  0  0  0  0  0  0  0  0  0
    0.1300    0.5514    0.4421 C   0  0  0  0  0  0  0  0  0  0  0  0
    1.3472    0.3546   -0.2243 C   0  0  0  0  0  0  0  0  0  0  0  0
    2.3644    1.4385   -0.1683 C   0  0  0  0  0  0  0  0  0  0  0  0
    2.0632    2.5943    0.1014 O   0  0  0  0  0  0  0  0  0  0  0  0
    3.6691    1.0917   -0.3898 N   0  0  0  0  0  0  0  0  0  0  0  0
    2.4780   -0.9921   -1.4973 H   0  0  0  0  0  0  0  0  0  0  0  0
    0.7386   -2.7362   -1.5212 H   0  0  0  0  0  0  0  0  0  0  0  0
   -1.3918   -2.3990   -0.3214 H   0  0  0  0  0  0  0  0  0  0  0  0
   -2.0110    0.3955    2.0296 H   0  0  0  0  0  0  0  0  0  0  0  0
   -2.5712   -1.1741    1.4882 H   0  0  0  0  0  0  0  0  0  0  0  0
   -4.1374    0.6094    0.7693 H   0  0  0  0  0  0  0  0  0  0  0  0
   -3.4055   -0.1470   -0.6565 H   0  0  0  0  0  0  0  0  0  0  0  0
   -2.8410    1.4393   -0.1088 H   0  0  0  0  0  0  0  0  0  0  0  0
   -0.0420    1.4842    0.9776 H   0  0  0  0  0  0  0  0  0  0  0  0
    3.9855    0.1359   -0.3158 H   0  0  0  0  0  0  0  0  0  0  0  0
    4.3496    1.8196   -0.2115 H   0  0  0  0  0  0  0  0  0  0  0  0
  1  2  2  0
  2  3  1  0
  3  4  2  0
  4  5  1  0
  5  6  1  0
  4  7  1  0
  7  8  2  0
  8  9  1  0
  9 10  2  0
  9 11  1  0
  8  1  1  0
  1 12  1  0
  2 13  1  0
  3 14  1  0
  5 15  1  0
  5 16  1  0
  6 17  1  0
  6 18  1  0
  6 19  1  0
  7 20  1  0
 11 21  1  0
 11 22  1  0
M  END
>  <ofe-name>  (50) 
lig_0049

$$$$
lig_0050
     RDKit          3D

 19 19  0  0  0  0  0  0  0  0999 V2000
    2.2785   -0.2502    0.6920 C   0  0  0  0  0  0  0  0  0  0  0  0
    1.3124   -0.5636    1.6492 C   0  0  0  0  0  0  0  0  0  0  0  0
   -0.0333   -0.6343    1.2884 C   0  0  0  0  0  0  0  0  0  0  0  0
   -0.4255   -0.3997   -0.0354 C   0  0  0  0  0  0  0  0  0  0  0  0
   -1.8801   -0.4630   -0.4254 C   0  0  0  0  0  0  0  0  0  0  0  0
   -2.5611    0.8902   -0.2894 C   0  0  0  0  0  0  0  0  0  0  0  0
    0.5524   -0.0789   -0.9890 C   0  0  0  0  0  0  0  0  0  0  0  0
    1.9015   -0.0001   -0.6294 C   0  0  0  0  0  0  0  0  0  0  0  0
    3.1226    0.3983   -1.8613 S   0  0  0  0  0  0  0  0  0  0  0  0
    3.3229   -0.2073    0.9896 H   0  0  0  0  0  0  0  0  0  0  0  0
    1.6089   -0.7547    2.6774 H   0  0  0  0  0  0  0  0  0  0  0  0
   -0.7755   -0.8764    2.0461 H   0  0  0  0  0  0  0  0  0  0  0  0
   -2.3977   -1.2025    0.1977 H   0  0  0  0  0  0  0  0  0  0  0  0
   -1.9697   -0.8213   -1.4582 H   0  0  0  0  0  0  0  0  0  0  0  0
   -3.6143    0.8145   -0.5779 H   0  0  0  0  0  0  0  0  0  0  0  0
   -2.0866    1.6403   -0.9312 H   0  0  0  0  0  0  0  0  0  0  0  0
   -2.5172    1.2551    0.7424 H   0  0  0  0  0  0  0  0  0  0  0  0
    0.2562    0.1119   -2.0187 H   0  0  0  0  0  0  0  0  0  0  0  0
    3.9058    1.1418   -1.0669 H   0  0  0  0  0  0  0  0  0  0  0  0
  1  2  2  0
  2  3  1  0
  3  4  2  0
  4  5  1  0
  5  6  1  0
  4  7  1  0
  7  8  2  0
  8  9  1  0
  8  1  1  0
  1 10  1  0
  2 11  1  0
  3 12  1  0
  5 13  1  0
  5 14  1  0
  6 15  1  0
  6 16  1  0
  6 17  1  0
  7 18  1  0
  9 19  1  0
M  END
>  <ofe-name>  (51) 
lig_0050

$$$$
lig_0051
     RDKit          3D

 22 22  0  0  0  0  0  0  0  0999 V2000
    1.4898   -1.3175   -0.9253 C   0  0  0  0  0  0  0  0  0  0  0  0
    0.2610   -1.9254   -1.1805 C   0  0  0  0  0  0  0  0  0  0  0  0
   -0.8908   -1.4725   -0.5381 C   0  0  0  0  0  0  0  0  0  0  0  0
   -0.8249   -0.4076    0.3682 C   0  0  0  0  0  0  0  0  0  0  0  0
   -2.0736    0.0974    1.0452 C   0  0  0  0  0  0  0  0  0  0  0  0
   -2.7422    1.2043    0.2445 C   0  0  0  0  0  0  0  0  0  0  0  0
    0.4137    0.2026    0.6143 C   0  0  0  0  0  0  0  0  0  0  0  0
    1.5805   -0.2499   -0.0219 C   0  0  0  0  0  0  0  0  0  0  0  0
    2.9038    0.4196    0.2401 C   0  0  0  0  0  0  0  0  0  0  0  0
    3.2922    1.6712   -1.0133 S   0  0  0  0  0  0  0  0  0  0  0  0
    2.3777   -1.6763   -1.4420 H   0  0  0  0  0  0  0  0  0  0  0  0
    0.2001   -2.7503   -1.8857 H   0  0  0  0  0  0  0  0  0  0  0  0
   -1.8426   -1.9531   -0.7526 H   0  0  0  0  0  0  0  0  0  0  0  0
   -2.7768   -0.7318    1.1898 H   0  0  0  0  0  0  0  0  0  0  0  0
   -1.8261    0.4632    2.0491 H   0  0  0  0  0  0  0  0  0  0  0  0
   -3.6446    1.5507    0.7581 H   0  0  0  0  0  0  0  0  0  0  0  0
   -3.0322    0.8541   -0.7520 H   0  0  0  0  0  0  0  0  0  0  0  0
   -2.0736    2.0625    0.1173 H   0  0  0  0  0  0  0  0  0  0  0  0
    0.4677    1.0397    1.3083 H   0  0  0  0  0  0  0  0  0  0  0  0
    2.8974    0.9003    1.2245 H   0  0  0  0  0  0  0  0  0  0  0  0
    3.7059   -0.3264    0.2608 H   0  0  0  0  0  0  0  0  0  0  0  0
    2.1377    2.3450   -0.9089 H   0  0  0  0  0  0  0  0  0  0  0  0
  1  2  2  0
  2  3  1  0
  3  4  2  0
  4  5  1  0
  5  6  1  0
  4  7  1  0
  7  8  2  0
  8  9  1  0
  9 10  1  0
  8  1  1  0
  1 11  1  0
  2 12  1  0
  3 13  1  0
  5 14  1  0
  5 15  1  0
  6 16  1  0
  6 17  1  0
  6 18  1  0
  7 19  1  0
  9 20  1  0
  9 21  1  0
 10 22  1  0
M  END
>  <ofe-name>  (52) 
lig_0051

$$$$
lig_0052
     RDKit          3D

 30 30  0  0  0  0  0  0  0  0999 V2000
   -0.0972    0.8836    1.9012 C   0  0  0  0  0  0  0  0  0  0  0  0
    1.2143    0.7828    2.3748 C   0  0  0  0  0  0  0  0  0  0  0  0
    2.1588    0.0346    1.6784 C   0  0  0  0  0  0  0  0  0  0  0  0
    1.7988   -0.6254    0.5020 C   0  0  0  0  0  0  0  0  0  0  0  0
    2.8177   -1.4237   -0.2703 C   0  0  0  0  0  0  0  0  0  0  0  0
    3.5126   -0.5804   -1.3284 C   0  0  0  0  0  0  0  0  0  0  0  0
    0.4801   -0.5115    0.0324 C   0  0  0  0  0  0  0  0  0  0  0  0
   -0.4961    0.2406    0.7187 C   0  0  0  0  0  0  0  0  0  0  0  0
   -1.9287    0.3334    0.1646 C   0  0  0  0  0  0  0  0  0  0  0  0
   -2.8796    1.1902    1.0310 C   0  0  0  0  0  0  0  0  0  0  0  0
   -2.5438   -1.0801    0.0747 C   0  0  0  0  0  0  0  0  0  0  0  0
   -1.9007    0.9660   -1.2436 C   0  0  0  0  0  0  0  0  0  0  0  0
   -0.7922    1.4808    2.4844 H   0  0  0  0  0  0  0  0  0  0  0  0
    1.4977    1.2934    3.2916 H   0  0  0  0  0  0  0  0  0  0  0  0
    3.1755   -0.0292    2.0582 H   0  0  0  0  0  0  0  0  0  0  0  0
    3.5625   -1.8394    0.4194 H   0  0  0  0  0  0  0  0  0  0  0  0
    2.3295   -2.2846   -0.7431 H   0  0  0  0  0  0  0  0  0  0  0  0
    4.2467   -1.1841   -1.8713 H   0  0  0  0  0  0  0  0  0  0  0  0
    2.7954   -0.1840   -2.0551 H   0  0  0  0  0  0  0  0  0  0  0  0
    4.0377    0.2685   -0.8776 H   0  0  0  0  0  0  0  0  0  0  0  0
    0.2166   -1.0233   -0.8915 H   0  0  0  0  0  0  0  0  0  0  0  0
   -3.8860    1.2251    0.5967 H   0  0  0  0  0  0  0  0  0  0  0  0
   -2.9801    0.7825    2.0437 H   0  0  0  0  0  0  0  0  0  0  0  0
   -2.5285    2.2255    1.1125 H   0  0  0  0  0  0  0  0  0  0  0  0
   -2.5500   -1.5705    1.0554 H   0  0  0  0  0  0  0  0  0  0  0  0
   -3.5789   -1.0386   -0.2841 H   0  0  0  0  0  0  0  0  0  0  0  0
   -1.9925   -1.7295   -0.6141 H   0  0  0  0  0  0  0  0  0  0  0  0
   -1.3352    0.3597   -1.9596 H   0  0  0  0  0  0  0  0  0  0  0  0
   -1.4407    1.9611   -1.2198 H   0  0  0  0  0  0  0  0  0  0  0  0
   -2.9138    1.0764   -1.6476 H   0  0  0  0  0  0  0  0  0  0  0  0
  1  2  1  0
  2  3  2  0
  3  4  1  0
  4  5  1  0
  5  6  1  0
  4  7  2  0
  7  8  1  0
  8  9  1  0
  9 10  1  0
  9 11  1  0
  9 12  1  0
  8  1  2  0
  1 13  1  0
  2 14  1  0
  3 15  1  0
  5 16  1  0
  5 17  1  0
  6 18  1  0
  6 19  1  0
  6 20  1  0
  7 21  1  0
 10 22  1  0
 10 23  1  0
 10 24  1  0
 11 25  1  0
 11 26  1  0
 11 27  1  0
 12 28  1  0
 12 29  1  0
 12 30  1  0
M  END
>  <ofe-name>  (53) 
lig_0052

$$$$
lig_0053
     RDKit          3D

 22 22  0  0  0  0  0  0  0  0999 V2000
   -1.5051    0.8819    0.7639 C   0  0  0  0  0  0  0  0  0  0  0  0
   -0.4573    1.0923    1.6644 C   0  0  0  0  0  0  0  0  0  0  0  0
    0.7597    0.4318    1.4962 C   0  0  0  0  0  0  0  0  0  0  0  0
    0.9405   -0.4514    0.4266 C   0  0  0  0  0  0  0  0  0  0  0  0
    2.2572   -1.1561    0.2267 C   0  0  0  0  0  0  0  0  0  0  0  0
    3.2031   -0.3494   -0.6496 C   0  0  0  0  0  0  0  0  0  0  0  0
   -0.1157   -0.6496   -0.4745 C   0  0  0  0  0  0  0  0  0  0  0  0
   -1.3383    0.0098   -0.3116 C   0  0  0  0  0  0  0  0  0  0  0  0
   -2.2761   -0.2825   -1.2640 O   0  0  0  0  0  0  0  0  0  0  0  0
   -3.5371    0.3626   -1.1422 C   0  0  0  0  0  0  0  0  0  0  0  0
   -2.4346    1.4151    0.9302 H   0  0  0  0  0  0  0  0  0  0  0  0
   -0.5904    1.7753    2.4995 H   0  0  0  0  0  0  0  0  0  0  0  0
    1.5660    0.6107    2.2038 H   0  0  0  0  0  0  0  0  0  0  0  0
    2.7256   -1.3462    1.2002 H   0  0  0  0  0  0  0  0  0  0  0  0
    2.0839   -2.1411   -0.2234 H   0  0  0  0  0  0  0  0  0  0  0  0
    3.4221    0.6269   -0.2040 H   0  0  0  0  0  0  0  0  0  0  0  0
    4.1497   -0.8841   -0.7769 H   0  0  0  0  0  0  0  0  0  0  0  0
    2.7748   -0.1767   -1.6428 H   0  0  0  0  0  0  0  0  0  0  0  0
    0.0091   -1.3253   -1.3181 H   0  0  0  0  0  0  0  0  0  0  0  0
   -4.0364    0.0810   -0.2092 H   0  0  0  0  0  0  0  0  0  0  0  0
   -3.4342    1.4497   -1.2240 H   0  0  0  0  0  0  0  0  0  0  0  0
   -4.1667    0.0250   -1.9711 H   0  0  0  0  0  0  0  0  0  0  0  0
  1  2  2  0
  2  3  1  0
  3  4  2  0
  4  5  1  0
  5  6  1  0
  4  7  1  0
  7  8  2  0
  8  9  1  0
  9 10  1  0
  8  1  1  0
  1 11  1  0
  2 12  1  0
  3 13  1  0
  5 14  1  0
  5 15  1  0
  6 16  1  0
  6 17  1  0
  6 18  1  0
  7 19  1  0
 10 20  1  0
 10 21  1  0
 10 22  1  0
M  END
>  <ofe-name>  (54) 
lig_0053

$$$$
lig_0054
     RDKit          3D

 25 25  0  0  0  0  0  0  0  0999 V2000
    0.6629   -0.1646   -1.6657 C   0  0  0  0  0  0  0  0  0  0  0  0
   -0.5164   -0.6533   -2.2343 C   0  0  0  0  0  0  0  0  0  0  0  0
   -1.6087   -0.9717   -1.4273 C   0  0  0  0  0  0  0  0  0  0  0  0
   -1.5312   -0.8092   -0.0401 C   0  0  0  0  0  0  0  0  0  0  0  0
   -2.7117   -1.1339    0.8382 C   0  0  0  0  0  0  0  0  0  0  0  0
   -3.6194    0.0707    1.0338 C   0  0  0  0  0  0  0  0  0  0  0  0
   -0.3450   -0.3118    0.5186 C   0  0  0  0  0  0  0  0  0  0  0  0
    0.7535    0.0096   -0.2851 C   0  0  0  0  0  0  0  0  0  0  0  0
    1.8413    0.4806    0.3980 O   0  0  0  0  0  0  0  0  0  0  0  0
    2.9916    0.8242   -0.3718 C   0  0  0  0  0  0  0  0  0  0  0  0
    4.0639    1.3167    0.5835 C   0  0  0  0  0  0  0  0  0  0  0  0
    1.4883    0.0712   -2.3283 H   0  0  0  0  0  0  0  0  0  0  0  0
   -0.5839   -0.7845   -3.3113 H   0  0  0  0  0  0  0  0  0  0  0  0
   -2.5203   -1.3466   -1.8870 H   0  0  0  0  0  0  0  0  0  0  0  0
   -2.3588   -1.4945    1.8121 H   0  0  0  0  0  0  0  0  0  0  0  0
   -3.2828   -1.9605    0.3981 H   0  0  0  0  0  0  0  0  0  0  0  0
   -4.4668   -0.1941    1.6741 H   0  0  0  0  0  0  0  0  0  0  0  0
   -3.0828    0.9000    1.5071 H   0  0  0  0  0  0  0  0  0  0  0  0
   -4.0154    0.4292    0.0776 H   0  0  0  0  0  0  0  0  0  0  0  0
   -0.2690   -0.1694    1.5946 H   0  0  0  0  0  0  0  0  0  0  0  0
    3.3673   -0.0547   -0.9083 H   0  0  0  0  0  0  0  0  0  0  0  0
    2.7500    1.6244   -1.0809 H   0  0  0  0  0  0  0  0  0  0  0  0
    4.9718    1.5946    0.0408 H   0  0  0  0  0  0  0  0  0  0  0  0
    3.7086    2.1858    1.1471 H   0  0  0  0  0  0  0  0  0  0  0  0
    4.3130    0.5418    1.3161 H   0  0  0  0  0  0  0  0  0  0  0  0
  1  2  2  0
  2  3  1  0
  3  4  2  0
  4  5  1  0
  5  6  1  0
  4  7  1  0
  7  8  2  0
  8  9  1  0
  9 10  1  0
 10 11  1  0
  8  1  1  0
  1 12  1  0
  2 13  1  0
  3 14  1  0
  5 15  1  0
  5 16  1  0
  6 17  1  0
  6 18  1  0
  6 19  1  0
  7 20  1  0
 10 21  1  0
 10 22  1  0
 11 23  1  0
 11 24  1  0
 11 25  1  0
M  END
>  <ofe-name>  (55) 
lig_0054

$$$$
lig_0055
     RDKit          3D

 25 25  0  0  0  0  0  0  0  0999 V2000
    0.3655    1.9092    0.7872 C   0  0  0  0  0  0  0  0  0  0  0  0
   -0.9191    2.3948    0.5350 C   0  0  0  0  0  0  0  0  0  0  0  0
   -1.8251    1.6257   -0.1911 C   0  0  0  0  0  0  0  0  0  0  0  0
   -1.4506    0.3672   -0.6740 C   0  0  0  0  0  0  0  0  0  0  0  0
   -2.4318   -0.4789   -1.4458 C   0  0  0  0  0  0  0  0  0  0  0  0
   -3.2206   -1.4048   -0.5325 C   0  0  0  0  0  0  0  0  0  0  0  0
   -0.1570   -0.1149   -0.4084 C   0  0  0  0  0  0  0  0  0  0  0  0
    0.7586    0.6494    0.3185 C   0  0  0  0  0  0  0  0  0  0  0  0
    2.0718    0.2324    0.6215 N   0  0  0  0  0  0  0  0  0  0  0  0
    2.6847   -0.9546    0.2632 C   0  0  0  0  0  0  0  0  0  0  0  0
    2.2069   -1.8638   -0.4055 O   0  0  0  0  0  0  0  0  0  0  0  0
    4.1031   -1.0372    0.7709 C   0  0  0  0  0  0  0  0  0  0  0  0
    1.0507    2.5312    1.3566 H   0  0  0  0  0  0  0  0  0  0  0  0
   -1.2137    3.3728    0.9064 H   0  0  0  0  0  0  0  0  0  0  0  0
   -2.8248    2.0111   -0.3782 H   0  0  0  0  0  0  0  0  0  0  0  0
   -3.1213    0.1686   -2.0011 H   0  0  0  0  0  0  0  0  0  0  0  0
   -1.8967   -1.0685   -2.2003 H   0  0  0  0  0  0  0  0  0  0  0  0
   -2.5582   -2.0906    0.0066 H   0  0  0  0  0  0  0  0  0  0  0  0
   -3.9248   -2.0041   -1.1182 H   0  0  0  0  0  0  0  0  0  0  0  0
   -3.7926   -0.8377    0.2096 H   0  0  0  0  0  0  0  0  0  0  0  0
    0.1090   -1.0989   -0.7833 H   0  0  0  0  0  0  0  0  0  0  0  0
    2.6273    0.8866    1.1574 H   0  0  0  0  0  0  0  0  0  0  0  0
    4.7656   -0.5056    0.0829 H   0  0  0  0  0  0  0  0  0  0  0  0
    4.1860   -0.6035    1.7717 H   0  0  0  0  0  0  0  0  0  0  0  0
    4.4072   -2.0862    0.8305 H   0  0  0  0  0  0  0  0  0  0  0  0
  1  2  2  0
  2  3  1  0
  3  4  2  0
  4  5  1  0
  5  6  1  0
  4  7  1  0
  7  8  2  0
  8  9  1  0
  9 10  1  0
 10 11  2  0
 10 12  1  0
  8  1  1  0
  1 13  1  0
  2 14  1  0
  3 15  1  0
  5 16  1  0
  5 17  1  0
  6 18  1  0
  6 19  1  0
  6 20  1  0
  7 21  1  0
  9 22  1  0
 12 23  1  0
 12 24  1  0
 12 25  1  0
M  END
>  <ofe-name>  (56) 
lig_0055

$$$$
lig_0056
     RDKit          3D

 28 29  0  0  0  0  0  0  0  0999 V2000
   -0.3555    1.9438   -0.0917 C   0  0  0  0  0  0  0  0  0  0  0  0
    0.8511    2.6007    0.1579 C   0  0  0  0  0  0  0  0  0  0  0  0
    2.0023    1.8665    0.4364 C   0  0  0  0  0  0  0  0  0  0  0  0
    1.9562    0.4689    0.4725 C   0  0  0  0  0  0  0  0  0  0  0  0
    3.2010   -0.3311    0.7591 C   0  0  0  0  0  0  0  0  0  0  0  0
    3.9449   -0.6951   -0.5166 C   0  0  0  0  0  0  0  0  0  0  0  0
    0.7386   -0.1803    0.2122 C   0  0  0  0  0  0  0  0  0  0  0  0
   -0.4336    0.5424   -0.0711 C   0  0  0  0  0  0  0  0  0  0  0  0
   -1.7046   -0.1502   -0.3404 C   0  0  0  0  0  0  0  0  0  0  0  0
   -1.7946   -1.1363   -1.3371 C   0  0  0  0  0  0  0  0  0  0  0  0
   -3.0007   -1.7939   -1.5939 C   0  0  0  0  0  0  0  0  0  0  0  0
   -4.1385   -1.4767   -0.8563 C   0  0  0  0  0  0  0  0  0  0  0  0
   -4.0713   -0.5027    0.1366 C   0  0  0  0  0  0  0  0  0  0  0  0
   -2.8645    0.1547    0.3912 C   0  0  0  0  0  0  0  0  0  0  0  0
   -1.2395    2.5361   -0.3190 H   0  0  0  0  0  0  0  0  0  0  0  0
    0.8925    3.6864    0.1303 H   0  0  0  0  0  0  0  0  0  0  0  0
    2.9362    2.3911    0.6244 H   0  0  0  0  0  0  0  0  0  0  0  0
    3.8621    0.2387    1.4234 H   0  0  0  0  0  0  0  0  0  0  0  0
    2.9347   -1.2434    1.3068 H   0  0  0  0  0  0  0  0  0  0  0  0
    3.3195   -1.2988   -1.1831 H   0  0  0  0  0  0  0  0  0  0  0  0
    4.8434   -1.2733   -0.2789 H   0  0  0  0  0  0  0  0  0  0  0  0
    4.2533    0.2009   -1.0659 H   0  0  0  0  0  0  0  0  0  0  0  0
    0.7003   -1.2683    0.2415 H   0  0  0  0  0  0  0  0  0  0  0  0
   -0.9199   -1.3908   -1.9323 H   0  0  0  0  0  0  0  0  0  0  0  0
   -3.0499   -2.5512   -2.3718 H   0  0  0  0  0  0  0  0  0  0  0  0
   -5.0766   -1.9880   -1.0552 H   0  0  0  0  0  0  0  0  0  0  0  0
   -4.9563   -0.2545    0.7165 H   0  0  0  0  0  0  0  0  0  0  0  0
   -2.8305    0.9046    1.1791 H   0  0  0  0  0  0  0  0  0  0  0  0
  1  2  2  0
  2  3  1  0
  3  4  2  0
  4  5  1  0
  5  6  1  0
  4  7  1  0
  7  8  2  0
  8  9  1  0
  9 10  2  0
 10 11  1  0
 11 12  2  0
 12 13  1  0
 13 14  2  0
  8  1  1  0
 14  9  1  0
  1 15  1  0
  2 16  1  0
  3 17  1  0
  5 18  1  0
  5 19  1  0
  6 20  1  0
  6 21  1  0
  6 22  1  0
  7 23  1  0
 10 24  1  0
 11 25  1  0
 12 26  1  0
 13 27  1  0
 14 28  1  0
M  END
>  <ofe-name>  (57) 
lig_0056

$$$$
lig_0057
     RDKit          3D

 30 30  0  0  0  0  0  0  0  0999 V2000
    1.1276   -0.6753   -1.8732 C   0  0  0  0  0  0  0  0  0  0  0  0
   -0.0608   -0.9002   -2.5672 C   0  0  0  0  0  0  0  0  0  0  0  0
   -1.2539   -1.0880   -1.8699 C   0  0  0  0  0  0  0  0  0  0  0  0
   -1.2710   -1.0518   -0.4701 C   0  0  0  0  0  0  0  0  0  0  0  0
   -2.5640   -1.2409    0.2842 C   0  0  0  0  0  0  0  0  0  0  0  0
   -3.4959   -0.0271    0.2222 C   0  0  0  0  0  0  0  0  0  0  0  0
   -2.9523    1.1853    0.9655 C   0  0  0  0  0  0  0  0  0  0  0  0
   -0.0708   -0.8259    0.2190 C   0  0  0  0  0  0  0  0  0  0  0  0
    1.1345   -0.6413   -0.4738 C   0  0  0  0  0  0  0  0  0  0  0  0
    2.4146   -0.3767    0.2787 C   0  0  0  0  0  0  0  0  0  0  0  0
    2.6158    1.1161    0.5422 C   0  0  0  0  0  0  0  0  0  0  0  0
    3.9076    1.3767    1.3006 C   0  0  0  0  0  0  0  0  0  0  0  0
    2.0489   -0.5247   -2.4309 H   0  0  0  0  0  0  0  0  0  0  0  0
   -0.0577   -0.9269   -3.6535 H   0  0  0  0  0  0  0  0  0  0  0  0
   -2.1727   -1.2610   -2.4253 H   0  0  0  0  0  0  0  0  0  0  0  0
   -3.0819   -2.1125   -0.1366 H   0  0  0  0  0  0  0  0  0  0  0  0
   -2.3566   -1.4970    1.3309 H   0  0  0  0  0  0  0  0  0  0  0  0
   -4.4566   -0.3052    0.6723 H   0  0  0  0  0  0  0  0  0  0  0  0
   -3.7020    0.2492   -0.8185 H   0  0  0  0  0  0  0  0  0  0  0  0
   -2.7297    0.9393    2.0087 H   0  0  0  0  0  0  0  0  0  0  0  0
   -2.0399    1.5669    0.4975 H   0  0  0  0  0  0  0  0  0  0  0  0
   -3.6920    1.9923    0.9587 H   0  0  0  0  0  0  0  0  0  0  0  0
   -0.0740   -0.7873    1.3067 H   0  0  0  0  0  0  0  0  0  0  0  0
    3.2624   -0.7779   -0.2911 H   0  0  0  0  0  0  0  0  0  0  0  0
    2.4001   -0.9304    1.2261 H   0  0  0  0  0  0  0  0  0  0  0  0
    1.7735    1.5150    1.1204 H   0  0  0  0  0  0  0  0  0  0  0  0
    2.6384    1.6672   -0.4058 H   0  0  0  0  0  0  0  0  0  0  0  0
    3.9019    0.8695    2.2707 H   0  0  0  0  0  0  0  0  0  0  0  0
    4.7740    1.0235    0.7325 H   0  0  0  0  0  0  0  0  0  0  0  0
    4.0326    2.4493    1.4788 H   0  0  0  0  0  0  0  0  0  0  0  0
  1  2  2  0
  2  3  1  0
  3  4  2  0
  4  5  1  0
  5  6  1  0
  6  7  1  0
  4  8  1  0
  8  9  2  0
  9 10  1  0
 10 11  1  0
 11 12  1  0
  9  1  1  0
  1 13  1  0
  2 14  1  0
  3 15  1  0
  5 16  1  0
  5 17  1  0
  6 18  1  0
  6 19  1  0
  7 20  1  0
  7 21  1  0
  7 22  1  0
  8 23  1  0
 10 24  1  0
 10 25  1  0
 11 26  1  0
 11 27  1  0
 12 28  1  0
 12 29  1  0
 12 30  1  0
M  END
>  <ofe-name>  (58) 
lig_0057

$$$$
lig_0058
     RDKit          3D

 22 22  0  0  0  0  0  0  0  0999 V2000
    3.0575    0.4923    0.2654 C   0  0  0  0  0  0  0  0  0  0  0  0
    2.2206    1.3026    1.0301 C   0  0  0  0  0  0  0  0  0  0  0  0
    0.8409    1.2800    0.8166 C   0  0  0  0  0  0  0  0  0  0  0  0
    0.2868    0.4492   -0.1680 C   0  0  0  0  0  0  0  0  0  0  0  0
   -1.2058    0.4138   -0.3843 C   0  0  0  0  0  0  0  0  0  0  0  0
   -1.8784   -0.6441    0.4911 C   0  0  0  0  0  0  0  0  0  0  0  0
   -3.3822   -0.6745    0.2685 C   0  0  0  0  0  0  0  0  0  0  0  0
    1.1354   -0.3681   -0.9287 C   0  0  0  0  0  0  0  0  0  0  0  0
    2.5102   -0.3366   -0.7061 C   0  0  0  0  0  0  0  0  0  0  0  0
    3.3644   -1.1162   -1.4294 O   0  0  0  0  0  0  0  0  0  0  0  0
    4.1313    0.5052    0.4273 H   0  0  0  0  0  0  0  0  0  0  0  0
    2.6430    1.9504    1.7935 H   0  0  0  0  0  0  0  0  0  0  0  0
    0.1995    1.9145    1.4243 H   0  0  0  0  0  0  0  0  0  0  0  0
   -1.6279    1.4045   -0.1727 H   0  0  0  0  0  0  0  0  0  0  0  0
   -1.4152    0.2179   -1.4436 H   0  0  0  0  0  0  0  0  0  0  0  0
   -1.4631   -1.6354    0.2725 H   0  0  0  0  0  0  0  0  0  0  0  0
   -1.6763   -0.4425    1.5501 H   0  0  0  0  0  0  0  0  0  0  0  0
   -3.8346    0.2915    0.5142 H   0  0  0  0  0  0  0  0  0  0  0  0
   -3.6197   -0.9108   -0.7737 H   0  0  0  0  0  0  0  0  0  0  0  0
   -3.8440   -1.4371    0.9034 H   0  0  0  0  0  0  0  0  0  0  0  0
    0.7136   -1.0216   -1.6863 H   0  0  0  0  0  0  0  0  0  0  0  0
    2.8441   -1.6350   -2.0641 H   0  0  0  0  0  0  0  0  0  0  0  0
  1  2  2  0
  2  3  1  0
  3  4  2  0
  4  5  1  0
  5  6  1  0
  6  7  1  0
  4  8  1  0
  8  9  2  0
  9 10  1  0
  9  1  1  0
  1 11  1  0
  2 12  1  0
  3 13  1  0
  5 14  1  0
  5 15  1  0
  6 16  1  0
  6 17  1  0
  7 18  1  0
  7 19  1  0
  7 20  1  0
  8 21  1  0
 10 22  1  0
M  END
>  <ofe-name>  (59) 
lig_0058

$$$$
lig_0059
     RDKit          3D

 25 25  0  0  0  0  0  0  0  0999 V2000
   -2.0462   -0.6814    1.1338 C   0  0  0  0  0  0  0  0  0  0  0  0
   -1.0740   -1.6178    1.4855 C   0  0  0  0  0  0  0  0  0  0  0  0
    0.1239   -1.6826    0.7757 C   0  0  0  0  0  0  0  0  0  0  0  0
    0.3604   -0.8135   -0.2961 C   0  0  0  0  0  0  0  0  0  0  0  0
    1.6582   -0.8816   -1.0631 C   0  0  0  0  0  0  0  0  0  0  0  0
    2.8568   -0.3120   -0.2986 C   0  0  0  0  0  0  0  0  0  0  0  0
    2.7737    1.1936   -0.0888 C   0  0  0  0  0  0  0  0  0  0  0  0
   -0.6243    0.1249   -0.6410 C   0  0  0  0  0  0  0  0  0  0  0  0
   -1.8296    0.2098    0.0750 C   0  0  0  0  0  0  0  0  0  0  0  0
   -2.8821    1.2007   -0.3482 C   0  0  0  0  0  0  0  0  0  0  0  0
   -3.6816    1.6089    0.7547 O   0  0  0  0  0  0  0  0  0  0  0  0
   -2.9771   -0.6426    1.6959 H   0  0  0  0  0  0  0  0  0  0  0  0
   -1.2525   -2.2967    2.3150 H   0  0  0  0  0  0  0  0  0  0  0  0
    0.8723   -2.4176    1.0625 H   0  0  0  0  0  0  0  0  0  0  0  0
    1.5547   -0.3676   -2.0271 H   0  0  0  0  0  0  0  0  0  0  0  0
    1.8560   -1.9332   -1.3083 H   0  0  0  0  0  0  0  0  0  0  0  0
    3.7671   -0.5309   -0.8697 H   0  0  0  0  0  0  0  0  0  0  0  0
    2.9662   -0.8071    0.6734 H   0  0  0  0  0  0  0  0  0  0  0  0
    2.6580    1.7174   -1.0430 H   0  0  0  0  0  0  0  0  0  0  0  0
    1.9331    1.4626    0.5580 H   0  0  0  0  0  0  0  0  0  0  0  0
    3.6896    1.5572    0.3879 H   0  0  0  0  0  0  0  0  0  0  0  0
   -0.4476    0.8022   -1.4745 H   0  0  0  0  0  0  0  0  0  0  0  0
   -2.4141    2.0970   -0.7689 H   0  0  0  0  0  0  0  0  0  0  0  0
   -3.5307    0.7448   -1.1032 H   0  0  0  0  0  0  0  0  0  0  0  0
   -4.3104    2.2654    0.4130 H   0  0  0  0  0  0  0  0  0  0  0  0
  1  2  2  0
  2  3  1  0
  3  4  2  0
  4  5  1  0
  5  6  1  0
  6  7  1  0
  4  8  1  0
  8  9  2  0
  9 10  1  0
 10 11  1  0
  9  1  1  0
  1 12  1  0
  2 13  1  0
  3 14  1  0
  5 15  1  0
  5 16  1  0
  6 17  1  0
  6 18  1  0
  7 19  1  0
  7 20  1  0
  7 21  1  0
  8 22  1  0
 10 23  1  0
 10 24  1  0
 11 25  1  0
M  END
>  <ofe-name>  (60) 
lig_0059

$$$$
lig_0060
     RDKit          3D

 23 23  0  0  0  0  0  0  0  0999 V2000
    2.6812    0.9964    0.6899 C   0  0  0  0  0  0  0  0  0  0  0  0
    1.7144    1.3353    1.6384 C   0  0  0  0  0  0  0  0  0  0  0  0
    0.4503    0.7506    1.5869 C   0  0  0  0  0  0  0  0  0  0  0  0
    0.1399   -0.1661    0.5765 C   0  0  0  0  0  0  0  0  0  0  0  0
   -1.2425   -0.7612    0.4808 C   0  0  0  0  0  0  0  0  0  0  0  0
   -2.1672    0.0928   -0.3874 C   0  0  0  0  0  0  0  0  0  0  0  0
   -3.5586   -0.5131   -0.4790 C   0  0  0  0  0  0  0  0  0  0  0  0
    1.1214   -0.4919   -0.3731 C   0  0  0  0  0  0  0  0  0  0  0  0
    2.4112    0.0426   -0.2933 C   0  0  0  0  0  0  0  0  0  0  0  0
    3.3412   -0.2039   -1.3113 N   0  0  0  0  0  0  0  0  0  0  0  0
    3.6502    1.4864    0.7254 H   0  0  0  0  0  0  0  0  0  0  0  0
    1.9437    2.0675    2.4077 H   0  0  0  0  0  0  0  0  0  0  0  0
   -0.2973    1.0299    2.3256 H   0  0  0  0  0  0  0  0  0  0  0  0
   -1.6627   -0.8690    1.4889 H   0  0  0  0  0  0  0  0  0  0  0  0
   -1.1732   -1.7781    0.0739 H   0  0  0  0  0  0  0  0  0  0  0  0
   -1.7518    0.1924   -1.3976 H   0  0  0  0  0  0  0  0  0  0  0  0
   -2.2433    1.1062    0.0251 H   0  0  0  0  0  0  0  0  0  0  0  0
   -4.0180   -0.5921    0.5115 H   0  0  0  0  0  0  0  0  0  0  0  0
   -4.2040    0.1123   -1.1038 H   0  0  0  0  0  0  0  0  0  0  0  0
   -3.5225   -1.5133   -0.9225 H   0  0  0  0  0  0  0  0  0  0  0  0
    0.8732   -1.1716   -1.1846 H   0  0  0  0  0  0  0  0  0  0  0  0
    3.2105   -1.0984   -1.7728 H   0  0  0  0  0  0  0  0  0  0  0  0
    4.3039   -0.0537   -1.0270 H   0  0  0  0  0  0  0  0  0  0  0  0
  1  2  2  0
  2  3  1  0
  3  4  2  0
  4  5  1  0
  5  6  1  0
  6  7  1  0
  4  8  1  0
  8  9  2  0
  9 10  1  0
  9  1  1  0
  1 11  1  0
  2 12  1  0
  3 13  1  0
  5 14  1  0
  5 15  1  0
  6 16  1  0
  6 17  1  0
  7 18  1  0
  7 19  1  0
  7 20  1  0
  8 21  1  0
 10 22  1  0
 10 23  1  0
M  END
>  <ofe-name>  (61) 
lig_0060

$$$$
lig_0061
     RDKit          3D

 26 26  0  0  0  0  0  0  0  0999 V2000
    1.7864    1.4854   -0.5197 C   0  0  0  0  0  0  0  0  0  0  0  0
    0.6772    2.2954   -0.2738 C   0  0  0  0  0  0  0  0  0  0  0  0
   -0.4892    1.7451    0.2575 C   0  0  0  0  0  0  0  0  0  0  0  0
   -0.5587    0.3781    0.5501 C   0  0  0  0  0  0  0  0  0  0  0  0
   -1.8179   -0.2226    1.1245 C   0  0  0  0  0  0  0  0  0  0  0  0
   -2.6012   -1.0830    0.1286 C   0  0  0  0  0  0  0  0  0  0  0  0
   -3.2078   -0.2774   -1.0119 C   0  0  0  0  0  0  0  0  0  0  0  0
    0.5615   -0.4277    0.2987 C   0  0  0  0  0  0  0  0  0  0  0  0
    1.7403    0.1142   -0.2378 C   0  0  0  0  0  0  0  0  0  0  0  0
    2.9314   -0.7692   -0.5071 C   0  0  0  0  0  0  0  0  0  0  0  0
    3.4744   -1.3260    0.7264 N   0  0  0  0  0  0  0  0  0  0  0  0
    2.6864    1.9332   -0.9338 H   0  0  0  0  0  0  0  0  0  0  0  0
    0.7213    3.3581   -0.4967 H   0  0  0  0  0  0  0  0  0  0  0  0
   -1.3448    2.3907    0.4410 H   0  0  0  0  0  0  0  0  0  0  0  0
   -2.4669    0.5685    1.5208 H   0  0  0  0  0  0  0  0  0  0  0  0
   -1.5394   -0.8384    1.9894 H   0  0  0  0  0  0  0  0  0  0  0  0
   -1.9636   -1.8728   -0.2857 H   0  0  0  0  0  0  0  0  0  0  0  0
   -3.4144   -1.5833    0.6682 H   0  0  0  0  0  0  0  0  0  0  0  0
   -3.8482    0.5239   -0.6297 H   0  0  0  0  0  0  0  0  0  0  0  0
   -2.4338    0.1693   -1.6432 H   0  0  0  0  0  0  0  0  0  0  0  0
   -3.8203   -0.9266   -1.6458 H   0  0  0  0  0  0  0  0  0  0  0  0
    0.5263   -1.4915    0.5301 H   0  0  0  0  0  0  0  0  0  0  0  0
    3.7169   -0.2031   -1.0209 H   0  0  0  0  0  0  0  0  0  0  0  0
    2.6328   -1.5809   -1.1800 H   0  0  0  0  0  0  0  0  0  0  0  0
    3.7007   -0.5589    1.3580 H   0  0  0  0  0  0  0  0  0  0  0  0
    4.3506   -1.8004    0.5206 H   0  0  0  0  0  0  0  0  0  0  0  0
  1  2  2  0
  2  3  1  0
  3  4  2  0
  4  5  1  0
  5  6  1  0
  6  7  1  0
  4  8  1  0
  8  9  2  0
  9 10  1  0
 10 11  1  0
  9  1  1  0
  1 12  1  0
  2 13  1  0
  3 14  1  0
  5 15  1  0
  5 16  1  0
  6 17  1  0
  6 18  1  0
  7 19  1  0
  7 20  1  0
  7 21  1  0
  8 22  1  0
 10 23  1  0
 10 24  1  0
 11 25  1  0
 11 26  1  0
M  END
>  <ofe-name>  (62) 
lig_0061

$$$$
lig_0062
     RDKit          3D

 21 21  0  0  0  0  0  0  0  0999 V2000
    2.7858    0.8083    0.5589 C   0  0  0  0  0  0  0  0  0  0  0  0
    1.8586    1.7553    0.1291 C   0  0  0  0  0  0  0  0  0  0  0  0
    0.6465    1.3415   -0.4308 C   0  0  0  0  0  0  0  0  0  0  0  0
    0.3497   -0.0233   -0.5661 C   0  0  0  0  0  0  0  0  0  0  0  0
   -0.9615   -0.4693   -1.1647 C   0  0  0  0  0  0  0  0  0  0  0  0
   -1.9455   -1.0403   -0.1394 C   0  0  0  0  0  0  0  0  0  0  0  0
   -2.4636    0.0038    0.8400 C   0  0  0  0  0  0  0  0  0  0  0  0
    1.2899   -0.9665   -0.1304 C   0  0  0  0  0  0  0  0  0  0  0  0
    2.4933   -0.5434    0.4253 C   0  0  0  0  0  0  0  0  0  0  0  0
    3.3844   -1.4545    0.8384 F   0  0  0  0  0  0  0  0  0  0  0  0
    3.7310    1.1134    0.9957 H   0  0  0  0  0  0  0  0  0  0  0  0
    2.0771    2.8153    0.2296 H   0  0  0  0  0  0  0  0  0  0  0  0
   -0.0685    2.0936   -0.7589 H   0  0  0  0  0  0  0  0  0  0  0  0
   -1.4311    0.3614   -1.7064 H   0  0  0  0  0  0  0  0  0  0  0  0
   -0.7485   -1.2346   -1.9223 H   0  0  0  0  0  0  0  0  0  0  0  0
   -2.8020   -1.4618   -0.6793 H   0  0  0  0  0  0  0  0  0  0  0  0
   -1.4871   -1.8645    0.4195 H   0  0  0  0  0  0  0  0  0  0  0  0
   -1.6609    0.3921    1.4740 H   0  0  0  0  0  0  0  0  0  0  0  0
   -3.2203   -0.4393    1.4954 H   0  0  0  0  0  0  0  0  0  0  0  0
   -2.9245    0.8441    0.3111 H   0  0  0  0  0  0  0  0  0  0  0  0
    1.0972   -2.0315   -0.2187 H   0  0  0  0  0  0  0  0  0  0  0  0
  1  2  2  0
  2  3  1  0
  3  4  2  0
  4  5  1  0
  5  6  1  0
  6  7  1  0
  4  8  1  0
  8  9  2  0
  9 10  1  0
  9  1  1  0
  1 11  1  0
  2 12  1  0
  3 13  1  0
  5 14  1  0
  5 15  1  0
  6 16  1  0
  6 17  1  0
  7 18  1  0
  7 19  1  0
  7 20  1  0
  8 21  1  0
M  END
>  <ofe-name>  (63) 
lig_0062

$$$$
lig_0063
     RDKit          3D

 21 21  0  0  0  0  0  0  0  0999 V2000
    3.1630    0.5666    0.2862 C   0  0  0  0  0  0  0  0  0  0  0  0
    2.3556    1.4486   -0.4314 C   0  0  0  0  0  0  0  0  0  0  0  0
    1.0262    1.1175   -0.7015 C   0  0  0  0  0  0  0  0  0  0  0  0
    0.4920   -0.1015   -0.2608 C   0  0  0  0  0  0  0  0  0  0  0  0
   -0.9492   -0.4504   -0.5377 C   0  0  0  0  0  0  0  0  0  0  0  0
   -1.8726    0.0354    0.5801 C   0  0  0  0  0  0  0  0  0  0  0  0
   -3.3234   -0.3191    0.2951 C   0  0  0  0  0  0  0  0  0  0  0  0
    1.3086   -0.9797    0.4657 C   0  0  0  0  0  0  0  0  0  0  0  0
    2.6359   -0.6433    0.7327 C   0  0  0  0  0  0  0  0  0  0  0  0
    3.6297   -1.7305    1.6231 Cl  0  0  0  0  0  0  0  0  0  0  0  0
    4.1966    0.8280    0.4949 H   0  0  0  0  0  0  0  0  0  0  0  0
    2.7609    2.3955   -0.7793 H   0  0  0  0  0  0  0  0  0  0  0  0
    0.4070    1.8179   -1.2585 H   0  0  0  0  0  0  0  0  0  0  0  0
   -1.2523   -0.0114   -1.4968 H   0  0  0  0  0  0  0  0  0  0  0  0
   -1.0430   -1.5369   -0.6612 H   0  0  0  0  0  0  0  0  0  0  0  0
   -1.5752   -0.4111    1.5368 H   0  0  0  0  0  0  0  0  0  0  0  0
   -1.7848    1.1224    0.6970 H   0  0  0  0  0  0  0  0  0  0  0  0
   -3.4528   -1.4027    0.2094 H   0  0  0  0  0  0  0  0  0  0  0  0
   -3.6642    0.1431   -0.6369 H   0  0  0  0  0  0  0  0  0  0  0  0
   -3.9668    0.0368    1.1058 H   0  0  0  0  0  0  0  0  0  0  0  0
    0.9089   -1.9252    0.8241 H   0  0  0  0  0  0  0  0  0  0  0  0
  1  2  2  0
  2  3  1  0
  3  4  2  0
  4  5  1  0
  5  6  1  0
  6  7  1  0
  4  8  1  0
  8  9  2  0
  9 10  1  0
  9  1  1  0
  1 11  1  0
  2 12  1  0
  3 13  1  0
  5 14  1  0
  5 15  1  0
  6 16  1  0
  6 17  1  0
  7 18  1  0
  7 19  1  0
  7 20  1  0
  8 21  1  0
M  END
>  <ofe-name>  (64) 
lig_0063

$$$$
lig_0064
     RDKit          3D

 21 21  0  0  0  0  0  0  0  0999 V2000
    2.7674    0.5020   -0.8607 C   0  0  0  0  0  0  0  0  0  0  0  0
    2.1118   -0.6528   -1.2855 C   0  0  0  0  0  0  0  0  0  0  0  0
    0.9372   -1.0645   -0.6522 C   0  0  0  0  0  0  0  0  0  0  0  0
    0.4052   -0.3254    0.4136 C   0  0  0  0  0  0  0  0  0  0  0  0
   -0.8679   -0.7666    1.0935 C   0  0  0  0  0  0  0  0  0  0  0  0
   -2.0806    0.1072    0.7593 C   0  0  0  0  0  0  0  0  0  0  0  0
   -2.5211   -0.0092   -0.6933 C   0  0  0  0  0  0  0  0  0  0  0  0
    1.0708    0.8348    0.8352 C   0  0  0  0  0  0  0  0  0  0  0  0
    2.2438    1.2406    0.1980 C   0  0  0  0  0  0  0  0  0  0  0  0
    3.1302    2.8076    0.7763 Br  0  0  0  0  0  0  0  0  0  0  0  0
    3.6805    0.8158   -1.3589 H   0  0  0  0  0  0  0  0  0  0  0  0
    2.5147   -1.2333   -2.1116 H   0  0  0  0  0  0  0  0  0  0  0  0
    0.4370   -1.9665   -0.9990 H   0  0  0  0  0  0  0  0  0  0  0  0
   -0.7002   -0.7481    2.1781 H   0  0  0  0  0  0  0  0  0  0  0  0
   -1.0855   -1.8130    0.8450 H   0  0  0  0  0  0  0  0  0  0  0  0
   -1.8757    1.1587    0.9919 H   0  0  0  0  0  0  0  0  0  0  0  0
   -2.9162   -0.2014    1.3991 H   0  0  0  0  0  0  0  0  0  0  0  0
   -3.4354    0.5705   -0.8558 H   0  0  0  0  0  0  0  0  0  0  0  0
   -1.7577    0.3758   -1.3759 H   0  0  0  0  0  0  0  0  0  0  0  0
   -2.7294   -1.0507   -0.9584 H   0  0  0  0  0  0  0  0  0  0  0  0
    0.6713    1.4184    1.6612 H   0  0  0  0  0  0  0  0  0  0  0  0
  1  2  2  0
  2  3  1  0
  3  4  2  0
  4  5  1  0
  5  6  1  0
  6  7  1  0
  4  8  1  0
  8  9  2  0
  9 10  1  0
  9  1  1  0
  1 11  1  0
  2 12  1  0
  3 13  1  0
  5 14  1  0
  5 15  1  0
  6 16  1  0
  6 17  1  0
  7 18  1  0
  7 19  1  0
  7 20  1  0
  8 21  1  0
M  END
>  <ofe-name>  (65) 
lig_0064

$$$$
lig_0065
     RDKit          3D

 24 24  0  0  0  0  0  0  0  0999 V2000
   -2.4195   -0.9162    0.8811 C   0  0  0  0  0  0  0  0  0  0  0  0
   -1.3725   -1.3001    1.7200 C   0  0  0  0  0  0  0  0  0  0  0  0
   -0.0942   -0.7717    1.5323 C   0  0  0  0  0  0  0  0  0  0  0  0
    0.1515    0.1507    0.5067 C   0  0  0  0  0  0  0  0  0  0  0  0
    1.5370    0.7079    0.2931 C   0  0  0  0  0  0  0  0  0  0  0  0
    2.3489   -0.1533   -0.6750 C   0  0  0  0  0  0  0  0  0  0  0  0
    3.7440    0.4133   -0.8857 C   0  0  0  0  0  0  0  0  0  0  0  0
   -0.9033    0.5275   -0.3373 C   0  0  0  0  0  0  0  0  0  0  0  0
   -2.1882   -0.0012   -0.1522 C   0  0  0  0  0  0  0  0  0  0  0  0
   -3.2659    0.4347   -1.0728 C   0  0  0  0  0  0  0  0  0  0  0  0
   -3.1444    1.2222   -1.9930 O   0  0  0  0  0  0  0  0  0  0  0  0
   -4.4522   -0.1372   -0.7987 O   0  0  0  0  0  0  0  0  0  0  0  0
   -3.4092   -1.3371    1.0397 H   0  0  0  0  0  0  0  0  0  0  0  0
   -1.5524   -2.0136    2.5205 H   0  0  0  0  0  0  0  0  0  0  0  0
    0.7123   -1.0851    2.1923 H   0  0  0  0  0  0  0  0  0  0  0  0
    1.4613    1.7352   -0.0857 H   0  0  0  0  0  0  0  0  0  0  0  0
    2.0530    0.7807    1.2589 H   0  0  0  0  0  0  0  0  0  0  0  0
    2.4315   -1.1775   -0.2914 H   0  0  0  0  0  0  0  0  0  0  0  0
    1.8378   -0.2179   -1.6433 H   0  0  0  0  0  0  0  0  0  0  0  0
    4.2965    0.4565    0.0583 H   0  0  0  0  0  0  0  0  0  0  0  0
    4.3080   -0.2167   -1.5807 H   0  0  0  0  0  0  0  0  0  0  0  0
    3.6979    1.4238   -1.3042 H   0  0  0  0  0  0  0  0  0  0  0  0
   -0.7247    1.2360   -1.1449 H   0  0  0  0  0  0  0  0  0  0  0  0
   -5.0533    0.2392   -1.4751 H   0  0  0  0  0  0  0  0  0  0  0  0
  1  2  2  0
  2  3  1  0
  3  4  2  0
  4  5  1  0
  5  6  1  0
  6  7  1  0
  4  8  1  0
  8  9  2  0
  9 10  1  0
 10 11  2  0
 10 12  1  0
  9  1  1  0
  1 13  1  0
  2 14  1  0
  3 15  1  0
  5 16  1  0
  5 17  1  0
  6 18  1  0
  6 19  1  0
  7 20  1  0
  7 21  1  0
  7 22  1  0
  8 23  1  0
 12 24  1  0
M  END
>  <ofe-name>  (66) 
lig_0065

$$$$
lig_0066
     RDKit          3D

 25 25  0  0  0  0  0  0  0  0999 V2000
   -1.9146   -1.2614   -0.4792 C   0  0  0  0  0  0  0  0  0  0  0  0
   -0.9029   -1.6031   -1.3784 C   0  0  0  0  0  0  0  0  0  0  0  0
    0.2430   -0.8122   -1.4798 C   0  0  0  0  0  0  0  0  0  0  0  0
    0.3959    0.3259   -0.6778 C   0  0  0  0  0  0  0  0  0  0  0  0
    1.6422    1.1719   -0.7718 C   0  0  0  0  0  0  0  0  0  0  0  0
    2.5853    1.0168    0.4249 C   0  0  0  0  0  0  0  0  0  0  0  0
    3.2266   -0.3614    0.5081 C   0  0  0  0  0  0  0  0  0  0  0  0
   -0.6244    0.6631    0.2238 C   0  0  0  0  0  0  0  0  0  0  0  0
   -1.7835   -0.1190    0.3186 C   0  0  0  0  0  0  0  0  0  0  0  0
   -2.8310    0.2893    1.2928 C   0  0  0  0  0  0  0  0  0  0  0  0
   -2.5817    1.0244    2.2397 O   0  0  0  0  0  0  0  0  0  0  0  0
   -4.1060   -0.1544    1.0715 N   0  0  0  0  0  0  0  0  0  0  0  0
   -2.7813   -1.9098   -0.3955 H   0  0  0  0  0  0  0  0  0  0  0  0
   -1.0011   -2.4933   -1.9949 H   0  0  0  0  0  0  0  0  0  0  0  0
    1.0238   -1.0976   -2.1819 H   0  0  0  0  0  0  0  0  0  0  0  0
    2.1818    0.9469   -1.7005 H   0  0  0  0  0  0  0  0  0  0  0  0
    1.3365    2.2230   -0.8539 H   0  0  0  0  0  0  0  0  0  0  0  0
    3.3833    1.7637    0.3357 H   0  0  0  0  0  0  0  0  0  0  0  0
    2.0582    1.2275    1.3628 H   0  0  0  0  0  0  0  0  0  0  0  0
    3.9489   -0.3904    1.3302 H   0  0  0  0  0  0  0  0  0  0  0  0
    2.4808   -1.1403    0.6934 H   0  0  0  0  0  0  0  0  0  0  0  0
    3.7580   -0.6040   -0.4177 H   0  0  0  0  0  0  0  0  0  0  0  0
   -0.5196    1.5428    0.8576 H   0  0  0  0  0  0  0  0  0  0  0  0
   -4.8172    0.2482    1.6689 H   0  0  0  0  0  0  0  0  0  0  0  0
   -4.4012   -0.4969    0.1689 H   0  0  0  0  0  0  0  0  0  0  0  0
  1  2  2  0
  2  3  1  0
  3  4  2  0
  4  5  1  0
  5  6  1  0
  6  7  1  0
  4  8  1  0
  8  9  2  0
  9 10  1  0
 10 11  2  0
 10 12  1  0
  9  1  1  0
  1 13  1  0
  2 14  1  0
  3 15  1  0
  5 16  1  0
  5 17  1  0
  6 18  1  0
  6 19  1  0
  7 20  1  0
  7 21  1  0
  7 22  1  0
  8 23  1  0
 12 24  1  0
 12 25  1  0
M  END
>  <ofe-name>  (67) 
lig_0066

$$$$
lig_0067
     RDKit          3D

 22 22  0  0  0  0  0  0  0  0999 V2000
    2.3006    0.2201    1.6709 C   0  0  0  0  0  0  0  0  0  0  0  0
    1.2513   -0.5835    2.1179 C   0  0  0  0  0  0  0  0  0  0  0  0
    0.2332   -0.9571    1.2404 C   0  0  0  0  0  0  0  0  0  0  0  0
    0.2555   -0.5328   -0.0942 C   0  0  0  0  0  0  0  0  0  0  0  0
   -0.8447   -0.9356   -1.0456 C   0  0  0  0  0  0  0  0  0  0  0  0
   -1.8003    0.2068   -1.4026 C   0  0  0  0  0  0  0  0  0  0  0  0
   -2.6466    0.6703   -0.2250 C   0  0  0  0  0  0  0  0  0  0  0  0
    1.3157    0.2754   -0.5338 C   0  0  0  0  0  0  0  0  0  0  0  0
    2.3344    0.6574    0.3454 C   0  0  0  0  0  0  0  0  0  0  0  0
    3.6814    1.6767   -0.2145 S   0  0  0  0  0  0  0  0  0  0  0  0
    3.0886    0.5014    2.3652 H   0  0  0  0  0  0  0  0  0  0  0  0
    1.2283   -0.9195    3.1514 H   0  0  0  0  0  0  0  0  0  0  0  0
   -0.5786   -1.5825    1.6058 H   0  0  0  0  0  0  0  0  0  0  0  0
   -0.3798   -1.3152   -1.9647 H   0  0  0  0  0  0  0  0  0  0  0  0
   -1.4129   -1.7779   -0.6311 H   0  0  0  0  0  0  0  0  0  0  0  0
   -2.4734   -0.1403   -2.1958 H   0  0  0  0  0  0  0  0  0  0  0  0
   -1.2470    1.0616   -1.8088 H   0  0  0  0  0  0  0  0  0  0  0  0
   -3.3643    1.4286   -0.5540 H   0  0  0  0  0  0  0  0  0  0  0  0
   -2.0298    1.1154    0.5615 H   0  0  0  0  0  0  0  0  0  0  0  0
   -3.2095   -0.1635    0.2065 H   0  0  0  0  0  0  0  0  0  0  0  0
    1.3435    0.6003   -1.5715 H   0  0  0  0  0  0  0  0  0  0  0  0
    2.9545    2.4608   -1.0234 H   0  0  0  0  0  0  0  0  0  0  0  0
  1  2  2  0
  2  3  1  0
  3  4  2  0
  4  5  1  0
  5  6  1  0
  6  7  1  0
  4  8  1  0
  8  9  2  0
  9 10  1  0
  9  1  1  0
  1 11  1  0
  2 12  1  0
  3 13  1  0
  5 14  1  0
  5 15  1  0
  6 16  1  0
  6 17  1  0
  7 18  1  0
  7 19  1  0
  7 20  1  0
  8 21  1  0
 10 22  1  0
M  END
>  <ofe-name>  (68) 
lig_0067

$$$$
lig_0068
     RDKit          3D

 25 25  0  0  0  0  0  0  0  0999 V2000
    2.3899   -1.1892    0.2607 C   0  0  0  0  0  0  0  0  0  0  0  0
    1.3972   -2.0790    0.6708 C   0  0  0  0  0  0  0  0  0  0  0  0
    0.0595   -1.8213    0.3731 C   0  0  0  0  0  0  0  0  0  0  0  0
   -0.2990   -0.6703   -0.3383 C   0  0  0  0  0  0  0  0  0  0  0  0
   -1.7482   -0.3747   -0.6344 C   0  0  0  0  0  0  0  0  0  0  0  0
   -2.3923    0.4592    0.4737 C   0  0  0  0  0  0  0  0  0  0  0  0
   -3.8526    0.7535    0.1694 C   0  0  0  0  0  0  0  0  0  0  0  0
    0.7048    0.2222   -0.7419 C   0  0  0  0  0  0  0  0  0  0  0  0
    2.0554   -0.0323   -0.4561 C   0  0  0  0  0  0  0  0  0  0  0  0
    3.1239    0.9353   -0.8896 C   0  0  0  0  0  0  0  0  0  0  0  0
    3.4294    2.2184    0.3538 S   0  0  0  0  0  0  0  0  0  0  0  0
    3.4273   -1.3998    0.5113 H   0  0  0  0  0  0  0  0  0  0  0  0
    1.6659   -2.9714    1.2299 H   0  0  0  0  0  0  0  0  0  0  0  0
   -0.7038   -2.5204    0.7070 H   0  0  0  0  0  0  0  0  0  0  0  0
   -2.2936   -1.3182   -0.7637 H   0  0  0  0  0  0  0  0  0  0  0  0
   -1.8230    0.1499   -1.5955 H   0  0  0  0  0  0  0  0  0  0  0  0
   -2.3247   -0.0697    1.4322 H   0  0  0  0  0  0  0  0  0  0  0  0
   -1.8532    1.4065    0.5960 H   0  0  0  0  0  0  0  0  0  0  0  0
   -4.4286   -0.1729    0.0781 H   0  0  0  0  0  0  0  0  0  0  0  0
   -3.9531    1.3148   -0.7650 H   0  0  0  0  0  0  0  0  0  0  0  0
   -4.2945    1.3503    0.9734 H   0  0  0  0  0  0  0  0  0  0  0  0
    0.4307    1.1294   -1.2777 H   0  0  0  0  0  0  0  0  0  0  0  0
    4.0607    0.4013   -1.0844 H   0  0  0  0  0  0  0  0  0  0  0  0
    2.8377    1.4158   -1.8318 H   0  0  0  0  0  0  0  0  0  0  0  0
    4.3840    2.8627   -0.3312 H   0  0  0  0  0  0  0  0  0  0  0  0
  1  2  2  0
  2  3  1  0
  3  4  2  0
  4  5  1  0
  5  6  1  0
  6  7  1  0
  4  8  1  0
  8  9  2  0
  9 10  1  0
 10 11  1  0
  9  1  1  0
  1 12  1  0
  2 13  1  0
  3 14  1  0
  5 15  1  0
  5 16  1  0
  6 17  1  0
  6 18  1  0
  7 19  1  0
  7 20  1  0
  7 21  1  0
  8 22  1  0
 10 23  1  0
 10 24  1  0
 11 25  1  0
M  END
>  <ofe-name>  (69) 
lig_0068

$$$$
lig_0069
     RDKit          3D

 33 33  0  0  0  0  0  0  0  0999 V2000
   -1.1307   -1.9249    0.3674 C   0  0  0  0  0  0  0  0  0  0  0  0
    0.0414   -2.6775    0.2476 C   0  0  0  0  0  0  0  0  0  0  0  0
    1.2385   -2.0641   -0.1091 C   0  0  0  0  0  0  0  0  0  0  0  0
    1.2738   -0.6903   -0.3549 C   0  0  0  0  0  0  0  0  0  0  0  0
    2.5692   -0.0114   -0.7242 C   0  0  0  0  0  0  0  0  0  0  0  0
    3.3066    0.5076    0.5107 C   0  0  0  0  0  0  0  0  0  0  0  0
    4.6117    1.1896    0.1322 C   0  0  0  0  0  0  0  0  0  0  0  0
    0.0916    0.0567   -0.2251 C   0  0  0  0  0  0  0  0  0  0  0  0
   -1.1343   -0.5403    0.1356 C   0  0  0  0  0  0  0  0  0  0  0  0
   -2.4034    0.3207    0.2632 C   0  0  0  0  0  0  0  0  0  0  0  0
   -2.7059    1.0041   -1.0880 C   0  0  0  0  0  0  0  0  0  0  0  0
   -3.6641   -0.4796    0.6618 C   0  0  0  0  0  0  0  0  0  0  0  0
   -2.1898    1.4029    1.3436 C   0  0  0  0  0  0  0  0  0  0  0  0
   -2.0359   -2.4553    0.6490 H   0  0  0  0  0  0  0  0  0  0  0  0
    0.0170   -3.7478    0.4361 H   0  0  0  0  0  0  0  0  0  0  0  0
    2.1417   -2.6634   -0.1929 H   0  0  0  0  0  0  0  0  0  0  0  0
    2.3619    0.8141   -1.4170 H   0  0  0  0  0  0  0  0  0  0  0  0
    3.2054   -0.7147   -1.2767 H   0  0  0  0  0  0  0  0  0  0  0  0
    3.5200   -0.3198    1.1985 H   0  0  0  0  0  0  0  0  0  0  0  0
    2.6754    1.2189    1.0571 H   0  0  0  0  0  0  0  0  0  0  0  0
    5.1232    1.5533    1.0288 H   0  0  0  0  0  0  0  0  0  0  0  0
    5.2823    0.4947   -0.3833 H   0  0  0  0  0  0  0  0  0  0  0  0
    4.4304    2.0452   -0.5262 H   0  0  0  0  0  0  0  0  0  0  0  0
    0.1369    1.1285   -0.4100 H   0  0  0  0  0  0  0  0  0  0  0  0
   -3.6269    1.5962   -1.0340 H   0  0  0  0  0  0  0  0  0  0  0  0
   -2.8324    0.2623   -1.8855 H   0  0  0  0  0  0  0  0  0  0  0  0
   -1.9055    1.6854   -1.3968 H   0  0  0  0  0  0  0  0  0  0  0  0
   -3.9035   -1.2509   -0.0795 H   0  0  0  0  0  0  0  0  0  0  0  0
   -4.5401    0.1757    0.7388 H   0  0  0  0  0  0  0  0  0  0  0  0
   -3.5411   -0.9678    1.6356 H   0  0  0  0  0  0  0  0  0  0  0  0
   -1.9424    0.9507    2.3113 H   0  0  0  0  0  0  0  0  0  0  0  0
   -1.3781    2.0920    1.0858 H   0  0  0  0  0  0  0  0  0  0  0  0
   -3.0931    2.0091    1.4798 H   0  0  0  0  0  0  0  0  0  0  0  0
  1  2  1  0
  2  3  2  0
  3  4  1  0
  4  5  1  0
  5  6  1  0
  6  7  1  0
  4  8  2  0
  8  9  1  0
  9 10  1  0
 10 11  1  0
 10 12  1  0
 10 13  1  0
  9  1  2  0
  1 14  1  0
  2 15  1  0
  3 16  1  0
  5 17  1  0
  5 18  1  0
  6 19  1  0
  6 20  1  0
  7 21  1  0
  7 22  1  0
  7 23  1  0
  8 24  1  0
 11 25  1  0
 11 26  1  0
 11 27  1  0
 12 28  1  0
 12 29  1  0
 12 30  1  0
 13 31  1  0
 13 32  1  0
 13 33  1  0
M  END
>  <ofe-name>  (70) 
lig_0069

$$$$
lig_0070
     RDKit          3D

 25 25  0  0  0  0  0  0  0  0999 V2000
    2.1248    0.7937    0.3006 C   0  0  0  0  0  0  0  0  0  0  0  0
    1.2453    1.8531    0.5384 C   0  0  0  0  0  0  0  0  0  0  0  0
   -0.0884    1.7643    0.1399 C   0  0  0  0  0  0  0  0  0  0  0  0
   -0.5585    0.6136   -0.5026 C   0  0  0  0  0  0  0  0  0  0  0  0
   -2.0011    0.5071   -0.9304 C   0  0  0  0  0  0  0  0  0  0  0  0
   -2.9753    0.2969    0.2325 C   0  0  0  0  0  0  0  0  0  0  0  0
   -2.8182   -1.0581    0.9087 C   0  0  0  0  0  0  0  0  0  0  0  0
    0.3340   -0.4428   -0.7359 C   0  0  0  0  0  0  0  0  0  0  0  0
    1.6724   -0.3604   -0.3382 C   0  0  0  0  0  0  0  0  0  0  0  0
    2.4237   -1.4661   -0.6300 O   0  0  0  0  0  0  0  0  0  0  0  0
    3.7917   -1.4325   -0.2445 C   0  0  0  0  0  0  0  0  0  0  0  0
    3.1534    0.9024    0.6263 H   0  0  0  0  0  0  0  0  0  0  0  0
    1.6017    2.7510    1.0367 H   0  0  0  0  0  0  0  0  0  0  0  0
   -0.7592    2.5985    0.3327 H   0  0  0  0  0  0  0  0  0  0  0  0
   -2.1191   -0.3006   -1.6637 H   0  0  0  0  0  0  0  0  0  0  0  0
   -2.2695    1.4300   -1.4607 H   0  0  0  0  0  0  0  0  0  0  0  0
   -2.8613    1.0899    0.9808 H   0  0  0  0  0  0  0  0  0  0  0  0
   -3.9984    0.3723   -0.1553 H   0  0  0  0  0  0  0  0  0  0  0  0
   -2.9220   -1.8727    0.1849 H   0  0  0  0  0  0  0  0  0  0  0  0
   -3.5891   -1.1866    1.6753 H   0  0  0  0  0  0  0  0  0  0  0  0
   -1.8440   -1.1516    1.3979 H   0  0  0  0  0  0  0  0  0  0  0  0
   -0.0111   -1.3481   -1.2309 H   0  0  0  0  0  0  0  0  0  0  0  0
    4.2471   -2.3808   -0.5455 H   0  0  0  0  0  0  0  0  0  0  0  0
    3.8938   -1.3445    0.8422 H   0  0  0  0  0  0  0  0  0  0  0  0
    4.3275   -0.6280   -0.7592 H   0  0  0  0  0  0  0  0  0  0  0  0
  1  2  2  0
  2  3  1  0
  3  4  2  0
  4  5  1  0
  5  6  1  0
  6  7  1  0
  4  8  1  0
  8  9  2  0
  9 10  1  0
 10 11  1  0
  9  1  1  0
  1 12  1  0
  2 13  1  0
  3 14  1  0
  5 15  1  0
  5 16  1  0
  6 17  1  0
  6 18  1  0
  7 19  1  0
  7 20  1  0
  7 21  1  0
  8 22  1  0
 11 23  1  0
 11 24  1  0
 11 25  1  0
M  END
>  <ofe-name>  (71) 
lig_0070

$$$$
lig_0071
     RDKit          3D

 28 28  0  0  0  0  0  0  0  0999 V2000
    1.2960   -0.7589    1.1332 C   0  0  0  0  0  0  0  0  0  0  0  0
    0.1419   -1.0954    1.8462 C   0  0  0  0  0  0  0  0  0  0  0  0
   -1.0950   -1.1430    1.2039 C   0  0  0  0  0  0  0  0  0  0  0  0
   -1.1923   -0.8520   -0.1608 C   0  0  0  0  0  0  0  0  0  0  0  0
   -2.5274   -0.8903   -0.8618 C   0  0  0  0  0  0  0  0  0  0  0  0
   -3.4414    0.2878   -0.5121 C   0  0  0  0  0  0  0  0  0  0  0  0
   -2.9267    1.6218   -1.0349 C   0  0  0  0  0  0  0  0  0  0  0  0
   -0.0268   -0.5159   -0.8648 C   0  0  0  0  0  0  0  0  0  0  0  0
    1.2185   -0.4712   -0.2283 C   0  0  0  0  0  0  0  0  0  0  0  0
    2.2576   -0.1230   -1.0453 O   0  0  0  0  0  0  0  0  0  0  0  0
    3.5866   -0.1763   -0.5307 C   0  0  0  0  0  0  0  0  0  0  0  0
    3.9737    1.1491    0.1021 C   0  0  0  0  0  0  0  0  0  0  0  0
    2.2336   -0.7231    1.6759 H   0  0  0  0  0  0  0  0  0  0  0  0
    0.2081   -1.3183    2.9081 H   0  0  0  0  0  0  0  0  0  0  0  0
   -1.9827   -1.4062    1.7744 H   0  0  0  0  0  0  0  0  0  0  0  0
   -3.0301   -1.8273   -0.5892 H   0  0  0  0  0  0  0  0  0  0  0  0
   -2.3824   -0.9374   -1.9485 H   0  0  0  0  0  0  0  0  0  0  0  0
   -3.5866    0.3561    0.5724 H   0  0  0  0  0  0  0  0  0  0  0  0
   -4.4285    0.1025   -0.9526 H   0  0  0  0  0  0  0  0  0  0  0  0
   -3.6553    2.4123   -0.8283 H   0  0  0  0  0  0  0  0  0  0  0  0
   -1.9849    1.9043   -0.5548 H   0  0  0  0  0  0  0  0  0  0  0  0
   -2.7662    1.5842   -2.1171 H   0  0  0  0  0  0  0  0  0  0  0  0
   -0.0812   -0.2817   -1.9260 H   0  0  0  0  0  0  0  0  0  0  0  0
    4.2436   -0.3524   -1.3902 H   0  0  0  0  0  0  0  0  0  0  0  0
    3.7441   -1.0248    0.1441 H   0  0  0  0  0  0  0  0  0  0  0  0
    3.3411    1.3820    0.9637 H   0  0  0  0  0  0  0  0  0  0  0  0
    3.8459    1.9671   -0.6147 H   0  0  0  0  0  0  0  0  0  0  0  0
    5.0166    1.1301    0.4310 H   0  0  0  0  0  0  0  0  0  0  0  0
  1  2  2  0
  2  3  1  0
  3  4  2  0
  4  5  1  0
  5  6  1  0
  6  7  1  0
  4  8  1  0
  8  9  2  0
  9 10  1  0
 10 11  1  0
 11 12  1  0
  9  1  1  0
  1 13  1  0
  2 14  1  0
  3 15  1  0
  5 16  1  0
  5 17  1  0
  6 18  1  0
  6 19  1  0
  7 20  1  0
  7 21  1  0
  7 22  1  0
  8 23  1  0
 11 24  1  0
 11 25  1  0
 12 26  1  0
 12 27  1  0
 12 28  1  0
M  END
>  <ofe-name>  (72) 
lig_0071

$$$$
lig_0072
     RDKit          3D

 28 28  0  0  0  0  0  0  0  0999 V2000
    0.9063   -2.0841    0.4702 C   0  0  0  0  0  0  0  0  0  0  0  0
   -0.3610   -2.4323    0.9413 C   0  0  0  0  0  0  0  0  0  0  0  0
   -1.3308   -1.4498    1.1261 C   0  0  0  0  0  0  0  0  0  0  0  0
   -1.0399   -0.1114    0.8406 C   0  0  0  0  0  0  0  0  0  0  0  0
   -2.0872    0.9593    1.0312 C   0  0  0  0  0  0  0  0  0  0  0  0
   -2.6633    1.4999   -0.2810 C   0  0  0  0  0  0  0  0  0  0  0  0
   -3.4920    0.4729   -1.0399 C   0  0  0  0  0  0  0  0  0  0  0  0
    0.2401    0.2275    0.3671 C   0  0  0  0  0  0  0  0  0  0  0  0
    1.2191   -0.7507    0.1788 C   0  0  0  0  0  0  0  0  0  0  0  0
    2.5213   -0.4848   -0.2940 N   0  0  0  0  0  0  0  0  0  0  0  0
    3.0605    0.7414   -0.6388 C   0  0  0  0  0  0  0  0  0  0  0  0
    2.5125    1.8359   -0.5791 O   0  0  0  0  0  0  0  0  0  0  0  0
    4.4923    0.6226   -1.0998 C   0  0  0  0  0  0  0  0  0  0  0  0
    1.6422   -2.8720    0.3354 H   0  0  0  0  0  0  0  0  0  0  0  0
   -0.5924   -3.4707    1.1636 H   0  0  0  0  0  0  0  0  0  0  0  0
   -2.3153   -1.7338    1.4905 H   0  0  0  0  0  0  0  0  0  0  0  0
   -1.6327    1.7866    1.5916 H   0  0  0  0  0  0  0  0  0  0  0  0
   -2.9000    0.5834    1.6654 H   0  0  0  0  0  0  0  0  0  0  0  0
   -3.3054    2.3582   -0.0492 H   0  0  0  0  0  0  0  0  0  0  0  0
   -1.8626    1.8706   -0.9316 H   0  0  0  0  0  0  0  0  0  0  0  0
   -4.2992    0.0793   -0.4139 H   0  0  0  0  0  0  0  0  0  0  0  0
   -3.9439    0.9343   -1.9239 H   0  0  0  0  0  0  0  0  0  0  0  0
   -2.8774   -0.3659   -1.3803 H   0  0  0  0  0  0  0  0  0  0  0  0
    0.4453    1.2721    0.1524 H   0  0  0  0  0  0  0  0  0  0  0  0
    3.1286   -1.2891   -0.3831 H   0  0  0  0  0  0  0  0  0  0  0  0
    4.7475    1.4872   -1.7193 H   0  0  0  0  0  0  0  0  0  0  0  0
    4.6355   -0.2793   -1.7019 H   0  0  0  0  0  0  0  0  0  0  0  0
    5.1520    0.5929   -0.2287 H   0  0  0  0  0  0  0  0  0  0  0  0
  1  2  2  0
  2  3  1  0
  3  4  2  0
  4  5  1  0
  5  6  1  0
  6  7  1  0
  4  8  1  0
  8  9  2  0
  9 10  1  0
 10 11  1  0
 11 12  2  0
 11 13  1  0
  9  1  1  0
  1 14  1  0
  2 15  1  0
  3 16  1  0
  5 17  1  0
  5 18  1  0
  6 19  1  0
  6 20  1  0
  7 21  1  0
  7 22  1  0
  7 23  1  0
  8 24  1  0
 10 25  1  0
 13 26  1  0
 13 27  1  0
 13 28  1  0
M  END
>  <ofe-name>  (73) 
lig_0072

$$$$
lig_0073
     RDKit          3D

 31 32  0  0  0  0  0  0  0  0999 V2000
   -0.6225   -0.4504   -2.0590 C   0  0  0  0  0  0  0  0  0  0  0  0
    0.5815   -0.9342   -2.5744 C   0  0  0  0  0  0  0  0  0  0  0  0
    1.6385   -1.2332   -1.7172 C   0  0  0  0  0  0  0  0  0  0  0  0
    1.5018   -1.0526   -0.3364 C   0  0  0  0  0  0  0  0  0  0  0  0
    2.6484   -1.3637    0.5940 C   0  0  0  0  0  0  0  0  0  0  0  0
    3.7771   -0.3297    0.5476 C   0  0  0  0  0  0  0  0  0  0  0  0
    3.3703    1.0278    1.1040 C   0  0  0  0  0  0  0  0  0  0  0  0
    0.2853   -0.5667    0.1692 C   0  0  0  0  0  0  0  0  0  0  0  0
   -0.7927   -0.2580   -0.6791 C   0  0  0  0  0  0  0  0  0  0  0  0
   -2.0618    0.2533   -0.1356 C   0  0  0  0  0  0  0  0  0  0  0  0
   -2.7530   -0.4451    0.8685 C   0  0  0  0  0  0  0  0  0  0  0  0
   -3.9579    0.0394    1.3850 C   0  0  0  0  0  0  0  0  0  0  0  0
   -4.4919    1.2329    0.9059 C   0  0  0  0  0  0  0  0  0  0  0  0
   -3.8228    1.9414   -0.0889 C   0  0  0  0  0  0  0  0  0  0  0  0
   -2.6186    1.4547   -0.6050 C   0  0  0  0  0  0  0  0  0  0  0  0
   -1.4389   -0.2334   -2.7448 H   0  0  0  0  0  0  0  0  0  0  0  0
    0.6926   -1.0797   -3.6456 H   0  0  0  0  0  0  0  0  0  0  0  0
    2.5710   -1.6088   -2.1324 H   0  0  0  0  0  0  0  0  0  0  0  0
    3.0522   -2.3477    0.3226 H   0  0  0  0  0  0  0  0  0  0  0  0
    2.2821   -1.4680    1.6231 H   0  0  0  0  0  0  0  0  0  0  0  0
    4.6175   -0.7081    1.1419 H   0  0  0  0  0  0  0  0  0  0  0  0
    4.1452   -0.2049   -0.4775 H   0  0  0  0  0  0  0  0  0  0  0  0
    4.2343    1.6999    1.1227 H   0  0  0  0  0  0  0  0  0  0  0  0
    2.9913    0.9357    2.1267 H   0  0  0  0  0  0  0  0  0  0  0  0
    2.5970    1.4979    0.4891 H   0  0  0  0  0  0  0  0  0  0  0  0
    0.1796   -0.4099    1.2416 H   0  0  0  0  0  0  0  0  0  0  0  0
   -2.3583   -1.3853    1.2485 H   0  0  0  0  0  0  0  0  0  0  0  0
   -4.4786   -0.5180    2.1590 H   0  0  0  0  0  0  0  0  0  0  0  0
   -5.4285    1.6105    1.3073 H   0  0  0  0  0  0  0  0  0  0  0  0
   -4.2347    2.8748   -0.4632 H   0  0  0  0  0  0  0  0  0  0  0  0
   -2.1057    2.0293   -1.3737 H   0  0  0  0  0  0  0  0  0  0  0  0
  1  2  2  0
  2  3  1  0
  3  4  2  0
  4  5  1  0
  5  6  1  0
  6  7  1  0
  4  8  1  0
  8  9  2  0
  9 10  1  0
 10 11  2  0
 11 12  1  0
 12 13  2  0
 13 14  1  0
 14 15  2  0
  9  1  1  0
 15 10  1  0
  1 16  1  0
  2 17  1  0
  3 18  1  0
  5 19  1  0
  5 20  1  0
  6 21  1  0
  6 22  1  0
  7 23  1  0
  7 24  1  0
  7 25  1  0
  8 26  1  0
 11 27  1  0
 12 28  1  0
 13 29  1  0
 14 30  1  0
 15 31  1  0
M  END
>  <ofe-name>  (74) 
lig_0073

$$$$
lig_0074
     RDKit          3D

 14 14  0  0  0  0  0  0  0  0999 V2000
    1.2930    0.9195    0.1390 C   0  0  0  0  0  0  0  0  0  0  0  0
    0.1867    1.7227   -0.1377 C   0  0  0  0  0  0  0  0  0  0  0  0
   -1.0698    1.1402   -0.3037 C   0  0  0  0  0  0  0  0  0  0  0  0
   -1.2106   -0.2400   -0.1918 C   0  0  0  0  0  0  0  0  0  0  0  0
   -2.4597   -0.7622   -0.3624 O   0  0  0  0  0  0  0  0  0  0  0  0
   -0.1142   -1.0534    0.0842 C   0  0  0  0  0  0  0  0  0  0  0  0
    1.1349   -0.4590    0.2477 C   0  0  0  0  0  0  0  0  0  0  0  0
    2.2468   -1.2018    0.5194 O   0  0  0  0  0  0  0  0  0  0  0  0
    2.2747    1.3663    0.2695 H   0  0  0  0  0  0  0  0  0  0  0  0
    0.3034    2.7995   -0.2238 H   0  0  0  0  0  0  0  0  0  0  0  0
   -1.9359    1.7596   -0.5194 H   0  0  0  0  0  0  0  0  0  0  0  0
   -2.4145   -1.7263   -0.2587 H   0  0  0  0  0  0  0  0  0  0  0  0
   -0.2305   -2.1270    0.1700 H   0  0  0  0  0  0  0  0  0  0  0  0
    1.9957   -2.1382    0.5676 H   0  0  0  0  0  0  0  0  0  0  0  0
  1  2  1  0
  2  3  2  0
  3  4  1  0
  4  5  1  0
  4  6  2  0
  6  7  1  0
  7  8  1  0
  7  1  2  0
  1  9  1  0
  2 10  1  0
  3 11  1  0
  5 12  1  0
  6 13  1  0
  8 14  1  0
M  END
>  <ofe-name>  (75) 
lig_0074

$$$$
lig_0075
     RDKit          3D

 17 17  0  0  0  0  0  0  0  0999 V2000
    0.3165    1.0229   -0.9488 C   0  0  0  0  0  0  0  0  0  0  0  0
   -1.0353    1.3516   -1.0693 C   0  0  0  0  0  0  0  0  0  0  0  0
   -2.0005    0.5837   -0.4202 C   0  0  0  0  0  0  0  0  0  0  0  0
   -1.6097   -0.5068    0.3469 C   0  0  0  0  0  0  0  0  0  0  0  0
   -2.5854   -1.2276    0.9694 O   0  0  0  0  0  0  0  0  0  0  0  0
   -0.2653   -0.8454    0.4744 C   0  0  0  0  0  0  0  0  0  0  0  0
    0.7126   -0.0818   -0.1814 C   0  0  0  0  0  0  0  0  0  0  0  0
    2.1679   -0.4313   -0.0280 C   0  0  0  0  0  0  0  0  0  0  0  0
    2.6223   -0.0954    1.2761 O   0  0  0  0  0  0  0  0  0  0  0  0
    1.0576    1.6354   -1.4585 H   0  0  0  0  0  0  0  0  0  0  0  0
   -1.3372    2.2070   -1.6681 H   0  0  0  0  0  0  0  0  0  0  0  0
   -3.0533    0.8354   -0.5103 H   0  0  0  0  0  0  0  0  0  0  0  0
   -2.1685   -1.9538    1.4614 H   0  0  0  0  0  0  0  0  0  0  0  0
    0.0387   -1.6945    1.0807 H   0  0  0  0  0  0  0  0  0  0  0  0
    2.3260   -1.5021   -0.1930 H   0  0  0  0  0  0  0  0  0  0  0  0
    2.7834    0.1088   -0.7548 H   0  0  0  0  0  0  0  0  0  0  0  0
    2.0302    0.5940    1.6236 H   0  0  0  0  0  0  0  0  0  0  0  0
  1  2  1  0
  2  3  2  0
  3  4  1  0
  4  5  1  0
  4  6  2  0
  6  7  1  0
  7  8  1  0
  8  9  1  0
  7  1  2  0
  1 10  1  0
  2 11  1  0
  3 12  1  0
  5 13  1  0
  6 14  1  0
  8 15  1  0
  8 16  1  0
  9 17  1  0
M  END
>  <ofe-name>  (76) 
lig_0075

$$$$
lig_0076
     RDKit          3D

 15 15  0  0  0  0  0  0  0  0999 V2000
   -0.6563    1.2589    0.1218 C   0  0  0  0  0  0  0  0  0  0  0  0
    0.7071    1.5380   -0.0139 C   0  0  0  0  0  0  0  0  0  0  0  0
    1.6210    0.4973   -0.1688 C   0  0  0  0  0  0  0  0  0  0  0  0
    1.1555   -0.8123   -0.2053 C   0  0  0  0  0  0  0  0  0  0  0  0
    2.0081   -1.8628   -0.3837 O   0  0  0  0  0  0  0  0  0  0  0  0
   -0.2020   -1.0935   -0.0708 C   0  0  0  0  0  0  0  0  0  0  0  0
   -1.1175   -0.0609    0.1457 C   0  0  0  0  0  0  0  0  0  0  0  0
   -2.4928   -0.3260    0.1633 N   0  0  0  0  0  0  0  0  0  0  0  0
   -1.3582    2.0840    0.2091 H   0  0  0  0  0  0  0  0  0  0  0  0
    1.0503    2.5691   -0.0117 H   0  0  0  0  0  0  0  0  0  0  0  0
    2.6762    0.7257   -0.2763 H   0  0  0  0  0  0  0  0  0  0  0  0
    2.9084   -1.5148   -0.4897 H   0  0  0  0  0  0  0  0  0  0  0  0
   -0.5375   -2.1241   -0.1344 H   0  0  0  0  0  0  0  0  0  0  0  0
   -2.7209   -1.2637    0.4791 H   0  0  0  0  0  0  0  0  0  0  0  0
   -3.0414    0.3852    0.6357 H   0  0  0  0  0  0  0  0  0  0  0  0
  1  2  1  0
  2  3  2  0
  3  4  1  0
  4  5  1  0
  4  6  2  0
  6  7  1  0
  7  8  1  0
  7  1  2  0
  1  9  1  0
  2 10  1  0
  3 11  1  0
  5 12  1  0
  6 13  1  0
  8 14  1  0
  8 15  1  0
M  END
>  <ofe-name>  (77) 
lig_0076

$$$$
lig_0077
     RDKit          3D

 18 18  0  0  0  0  0  0  0  0999 V2000
    0.1354    1.4208   -0.3308 C   0  0  0  0  0  0  0  0  0  0  0  0
   -1.1208    1.8987    0.0507 C   0  0  0  0  0  0  0  0  0  0  0  0
   -2.0993    1.0117    0.4954 C   0  0  0  0  0  0  0  0  0  0  0  0
   -1.8170   -0.3469    0.5563 C   0  0  0  0  0  0  0  0  0  0  0  0
   -2.7994   -1.1823    1.0003 O   0  0  0  0  0  0  0  0  0  0  0  0
   -0.5698   -0.8353    0.1761 C   0  0  0  0  0  0  0  0  0  0  0  0
    0.4255    0.0492   -0.2699 C   0  0  0  0  0  0  0  0  0  0  0  0
    1.7742   -0.4712   -0.6971 C   0  0  0  0  0  0  0  0  0  0  0  0
    2.4272   -1.2144    0.3751 N   0  0  0  0  0  0  0  0  0  0  0  0
    0.8856    2.1283   -0.6767 H   0  0  0  0  0  0  0  0  0  0  0  0
   -1.3372    2.9625    0.0012 H   0  0  0  0  0  0  0  0  0  0  0  0
   -3.0772    1.3774    0.7943 H   0  0  0  0  0  0  0  0  0  0  0  0
   -2.4431   -2.0859    1.0179 H   0  0  0  0  0  0  0  0  0  0  0  0
   -0.3488   -1.8982    0.2259 H   0  0  0  0  0  0  0  0  0  0  0  0
    2.4246    0.3568   -1.0014 H   0  0  0  0  0  0  0  0  0  0  0  0
    1.6465   -1.1187   -1.5718 H   0  0  0  0  0  0  0  0  0  0  0  0
    3.3742   -1.4505    0.0859 H   0  0  0  0  0  0  0  0  0  0  0  0
    2.5196   -0.6020    1.1850 H   0  0  0  0  0  0  0  0  0  0  0  0
  1  2  1  0
  2  3  2  0
  3  4  1  0
  4  5  1  0
  4  6  2  0
  6  7  1  0
  7  8  1  0
  8  9  1  0
  7  1  2  0
  1 10  1  0
  2 11  1  0
  3 12  1  0
  5 13  1  0
  6 14  1  0
  8 15  1  0
  8 16  1  0
  9 17  1  0
  9 18  1  0
M  END
>  <ofe-name>  (78) 
lig_0077

$$$$
lig_0078
     RDKit          3D

 13 13  0  0  0  0  0  0  0  0999 V2000
   -1.6183    0.2953    0.0649 C   0  0  0  0  0  0  0  0  0  0  0  0
   -0.7998    1.3409   -0.3610 C   0  0  0  0  0  0  0  0  0  0  0  0
    0.5816    1.1525   -0.4374 C   0  0  0  0  0  0  0  0  0  0  0  0
    1.1344   -0.0773   -0.0882 C   0  0  0  0  0  0  0  0  0  0  0  0
    2.4883   -0.2119   -0.1795 O   0  0  0  0  0  0  0  0  0  0  0  0
    0.3280   -1.1263    0.3377 C   0  0  0  0  0  0  0  0  0  0  0  0
   -1.0466   -0.9262    0.4095 C   0  0  0  0  0  0  0  0  0  0  0  0
   -1.8353   -1.9291    0.8184 F   0  0  0  0  0  0  0  0  0  0  0  0
   -2.6940    0.4233    0.1305 H   0  0  0  0  0  0  0  0  0  0  0  0
   -1.2338    2.2995   -0.6329 H   0  0  0  0  0  0  0  0  0  0  0  0
    1.2265    1.9624   -0.7684 H   0  0  0  0  0  0  0  0  0  0  0  0
    2.7335   -1.1120    0.0921 H   0  0  0  0  0  0  0  0  0  0  0  0
    0.7355   -2.0911    0.6142 H   0  0  0  0  0  0  0  0  0  0  0  0
  1  2  2  0
  2  3  1  0
  3  4  2  0
  4  5  1  0
  4  6  1  0
  6  7  2  0
  7  8  1  0
  7  1  1  0
  1  9  1  0
  2 10  1  0
  3 11  1  0
  5 12  1  0
  6 13  1  0
M  END
>  <ofe-name>  (79) 
lig_0078

$$$$
lig_0079
     RDKit          3D

 13 13  0  0  0  0  0  0  0  0999 V2000
    1.6148   -0.2308    0.0929 C   0  0  0  0  0  0  0  0  0  0  0  0
    0.8655   -1.3012   -0.3975 C   0  0  0  0  0  0  0  0  0  0  0  0
   -0.5203   -1.1856   -0.5085 C   0  0  0  0  0  0  0  0  0  0  0  0
   -1.1482   -0.0028   -0.1295 C   0  0  0  0  0  0  0  0  0  0  0  0
   -2.5045    0.0616   -0.2567 O   0  0  0  0  0  0  0  0  0  0  0  0
   -0.4132    1.0719    0.3609 C   0  0  0  0  0  0  0  0  0  0  0  0
    0.9718    0.9492    0.4692 C   0  0  0  0  0  0  0  0  0  0  0  0
    1.8985    2.2683    1.0739 Cl  0  0  0  0  0  0  0  0  0  0  0  0
    2.6943   -0.3222    0.1789 H   0  0  0  0  0  0  0  0  0  0  0  0
    1.3590   -2.2236   -0.6926 H   0  0  0  0  0  0  0  0  0  0  0  0
   -1.1100   -2.0151   -0.8895 H   0  0  0  0  0  0  0  0  0  0  0  0
   -2.8085    0.9350    0.0411 H   0  0  0  0  0  0  0  0  0  0  0  0
   -0.8992    1.9952    0.6573 H   0  0  0  0  0  0  0  0  0  0  0  0
  1  2  2  0
  2  3  1  0
  3  4  2  0
  4  5  1  0
  4  6  1  0
  6  7  2  0
  7  8  1  0
  7  1  1  0
  1  9  1  0
  2 10  1  0
  3 11  1  0
  5 12  1  0
  6 13  1  0
M  END
>  <ofe-name>  (80) 
lig_0079

$$$$
lig_0080
     RDKit          3D

 13 13  0  0  0  0  0  0  0  0999 V2000
   -1.5428    0.5160    0.0802 C   0  0  0  0  0  0  0  0  0  0  0  0
   -0.6006    1.4696   -0.3081 C   0  0  0  0  0  0  0  0  0  0  0  0
    0.7459    1.1179   -0.4044 C   0  0  0  0  0  0  0  0  0  0  0  0
    1.1428   -0.1834   -0.1126 C   0  0  0  0  0  0  0  0  0  0  0  0
    2.4699   -0.4789   -0.2212 O   0  0  0  0  0  0  0  0  0  0  0  0
    0.2148   -1.1448    0.2757 C   0  0  0  0  0  0  0  0  0  0  0  0
   -1.1298   -0.7853    0.3697 C   0  0  0  0  0  0  0  0  0  0  0  0
   -2.4084   -2.0761    0.8957 Br  0  0  0  0  0  0  0  0  0  0  0  0
   -2.5904    0.7958    0.1535 H   0  0  0  0  0  0  0  0  0  0  0  0
   -0.9138    2.4853   -0.5354 H   0  0  0  0  0  0  0  0  0  0  0  0
    1.4843    1.8559   -0.7062 H   0  0  0  0  0  0  0  0  0  0  0  0
    2.6038   -1.4130    0.0096 H   0  0  0  0  0  0  0  0  0  0  0  0
    0.5244   -2.1592    0.5032 H   0  0  0  0  0  0  0  0  0  0  0  0
  1  2  2  0
  2  3  1  0
  3  4  2  0
  4  5  1  0
  4  6  1  0
  6  7  2  0
  7  8  1  0
  7  1  1  0
  1  9  1  0
  2 10  1  0
  3 11  1  0
  5 12  1  0
  6 13  1  0
M  END
>  <ofe-name>  (81) 
lig_0080

$$$$
lig_0081
     RDKit          3D

 16 16  0  0  0  0  0  0  0  0999 V2000
    0.4127    1.2298   -0.3887 C   0  0  0  0  0  0  0  0  0  0  0  0
   -0.9232    1.5994   -0.5601 C   0  0  0  0  0  0  0  0  0  0  0  0
   -1.9389    0.6809   -0.2963 C   0  0  0  0  0  0  0  0  0  0  0  0
   -1.6166   -0.6008    0.1369 C   0  0  0  0  0  0  0  0  0  0  0  0
   -2.6437   -1.4636    0.3820 O   0  0  0  0  0  0  0  0  0  0  0  0
   -0.2909   -0.9841    0.3125 C   0  0  0  0  0  0  0  0  0  0  0  0
    0.7317   -0.0633    0.0482 C   0  0  0  0  0  0  0  0  0  0  0  0
    2.1333   -0.5031    0.2451 C   0  0  0  0  0  0  0  0  0  0  0  0
    2.4849   -1.6063    0.6208 O   0  0  0  0  0  0  0  0  0  0  0  0
    3.0295    0.4582   -0.0372 O   0  0  0  0  0  0  0  0  0  0  0  0
    1.1954    1.9551   -0.5977 H   0  0  0  0  0  0  0  0  0  0  0  0
   -1.1725    2.6019   -0.8989 H   0  0  0  0  0  0  0  0  0  0  0  0
   -2.9801    0.9633   -0.4281 H   0  0  0  0  0  0  0  0  0  0  0  0
   -2.2767   -2.3144    0.6753 H   0  0  0  0  0  0  0  0  0  0  0  0
   -0.0402   -1.9856    0.6510 H   0  0  0  0  0  0  0  0  0  0  0  0
    3.8954    0.0324    0.1351 H   0  0  0  0  0  0  0  0  0  0  0  0
  1  2  1  0
  2  3  2  0
  3  4  1  0
  4  5  1  0
  4  6  2  0
  6  7  1  0
  7  8  1  0
  8  9  2  0
  8 10  1  0
  7  1  2  0
  1 11  1  0
  2 12  1  0
  3 13  1  0
  5 14  1  0
  6 15  1  0
 10 16  1  0
M  END
>  <ofe-name>  (82) 
lig_0081

$$$$
lig_0082
     RDKit          3D

 17 17  0  0  0  0  0  0  0  0999 V2000
   -0.0078   -1.0816    1.0627 C   0  0  0  0  0  0  0  0  0  0  0  0
   -1.3961   -1.0086    1.1990 C   0  0  0  0  0  0  0  0  0  0  0  0
   -2.1188   -0.0613    0.4743 C   0  0  0  0  0  0  0  0  0  0  0  0
   -1.4431    0.8099   -0.3756 C   0  0  0  0  0  0  0  0  0  0  0  0
   -2.1102    1.7581   -1.0943 O   0  0  0  0  0  0  0  0  0  0  0  0
   -0.0602    0.7479   -0.5203 C   0  0  0  0  0  0  0  0  0  0  0  0
    0.6657   -0.2107    0.1945 C   0  0  0  0  0  0  0  0  0  0  0  0
    2.1440   -0.3311    0.0846 C   0  0  0  0  0  0  0  0  0  0  0  0
    2.8066   -0.9123    0.9350 O   0  0  0  0  0  0  0  0  0  0  0  0
    2.7445    0.1981   -1.0242 N   0  0  0  0  0  0  0  0  0  0  0  0
    0.5505   -1.8213    1.6341 H   0  0  0  0  0  0  0  0  0  0  0  0
   -1.9098   -1.6903    1.8726 H   0  0  0  0  0  0  0  0  0  0  0  0
   -3.1973   -0.0143    0.5895 H   0  0  0  0  0  0  0  0  0  0  0  0
   -3.0558    1.7077   -0.8757 H   0  0  0  0  0  0  0  0  0  0  0  0
    0.4294    1.4655   -1.1698 H   0  0  0  0  0  0  0  0  0  0  0  0
    2.2277    0.4463   -1.8551 H   0  0  0  0  0  0  0  0  0  0  0  0
    3.7307   -0.0021   -1.1313 H   0  0  0  0  0  0  0  0  0  0  0  0
  1  2  1  0
  2  3  2  0
  3  4  1  0
  4  5  1  0
  4  6  2  0
  6  7  1  0
  7  8  1  0
  8  9  2  0
  8 10  1  0
  7  1  2  0
  1 11  1  0
  2 12  1  0
  3 13  1  0
  5 14  1  0
  6 15  1  0
 10 16  1  0
 10 17  1  0
M  END
>  <ofe-name>  (83) 
lig_0082

$$$$
lig_0083
     RDKit          3D

 14 14  0  0  0  0  0  0  0  0999 V2000
    1.2772   -0.9144    0.0723 C   0  0  0  0  0  0  0  0  0  0  0  0
    0.1606   -1.7496   -0.0059 C   0  0  0  0  0  0  0  0  0  0  0  0
   -1.1120   -1.1978   -0.1421 C   0  0  0  0  0  0  0  0  0  0  0  0
   -1.2601    0.1832   -0.2022 C   0  0  0  0  0  0  0  0  0  0  0  0
   -2.5236    0.6780   -0.3415 O   0  0  0  0  0  0  0  0  0  0  0  0
   -0.1544    1.0266   -0.1237 C   0  0  0  0  0  0  0  0  0  0  0  0
    1.1225    0.4745    0.0176 C   0  0  0  0  0  0  0  0  0  0  0  0
    2.5522    1.5293    0.1219 S   0  0  0  0  0  0  0  0  0  0  0  0
    2.2655   -1.3564    0.1760 H   0  0  0  0  0  0  0  0  0  0  0  0
    0.2832   -2.8286    0.0377 H   0  0  0  0  0  0  0  0  0  0  0  0
   -1.9848   -1.8418   -0.2049 H   0  0  0  0  0  0  0  0  0  0  0  0
   -2.4769    1.6463   -0.4012 H   0  0  0  0  0  0  0  0  0  0  0  0
   -0.2778    2.1035   -0.1759 H   0  0  0  0  0  0  0  0  0  0  0  0
    2.1282    2.2473    1.1721 H   0  0  0  0  0  0  0  0  0  0  0  0
  1  2  1  0
  2  3  2  0
  3  4  1  0
  4  5  1  0
  4  6  2  0
  6  7  1  0
  7  8  1  0
  7  1  2  0
  1  9  1  0
  2 10  1  0
  3 11  1  0
  5 12  1  0
  6 13  1  0
  8 14  1  0
M  END
>  <ofe-name>  (84) 
lig_0083

$$$$
lig_0084
     RDKit          3D

 17 17  0  0  0  0  0  0  0  0999 V2000
   -0.3814   -1.3873    0.2130 C   0  0  0  0  0  0  0  0  0  0  0  0
    0.9542   -1.7768    0.3301 C   0  0  0  0  0  0  0  0  0  0  0  0
    1.9719   -0.8603    0.0739 C   0  0  0  0  0  0  0  0  0  0  0  0
    1.6491    0.4398   -0.2944 C   0  0  0  0  0  0  0  0  0  0  0  0
    2.6769    1.3041   -0.5320 O   0  0  0  0  0  0  0  0  0  0  0  0
    0.3206    0.8415   -0.4143 C   0  0  0  0  0  0  0  0  0  0  0  0
   -0.7123   -0.0764   -0.1656 C   0  0  0  0  0  0  0  0  0  0  0  0
   -2.1546    0.3431   -0.2781 C   0  0  0  0  0  0  0  0  0  0  0  0
   -2.8581    0.7978    1.3298 S   0  0  0  0  0  0  0  0  0  0  0  0
   -1.1655   -2.1120    0.4246 H   0  0  0  0  0  0  0  0  0  0  0  0
    1.2014   -2.7934    0.6243 H   0  0  0  0  0  0  0  0  0  0  0  0
    3.0126   -1.1577    0.1645 H   0  0  0  0  0  0  0  0  0  0  0  0
    2.3083    2.1686   -0.7753 H   0  0  0  0  0  0  0  0  0  0  0  0
    0.0790    1.8612   -0.6997 H   0  0  0  0  0  0  0  0  0  0  0  0
   -2.2490    1.1988   -0.9557 H   0  0  0  0  0  0  0  0  0  0  0  0
   -2.7496   -0.4677   -0.7124 H   0  0  0  0  0  0  0  0  0  0  0  0
   -1.9035    1.6767    1.6673 H   0  0  0  0  0  0  0  0  0  0  0  0
  1  2  1  0
  2  3  2  0
  3  4  1  0
  4  5  1  0
  4  6  2  0
  6  7  1  0
  7  8  1  0
  8  9  1  0
  7  1  2  0
  1 10  1  0
  2 11  1  0
  3 12  1  0
  5 13  1  0
  6 14  1  0
  8 15  1  0
  8 16  1  0
  9 17  1  0
M  END
>  <ofe-name>  (85) 
lig_0084

$$$$
lig_0085
     RDKit          3D

 25 25  0  0  0  0  0  0  0  0999 V2000
    0.5979    0.8802   -1.3349 C   0  0  0  0  0  0  0  0  0  0  0  0
    1.8774    0.7902   -1.8953 C   0  0  0  0  0  0  0  0  0  0  0  0
    2.8156   -0.0869   -1.3624 C   0  0  0  0  0  0  0  0  0  0  0  0
    2.4691   -0.8690   -0.2723 C   0  0  0  0  0  0  0  0  0  0  0  0
    3.4135   -1.7184    0.2251 O   0  0  0  0  0  0  0  0  0  0  0  0
    1.1965   -0.7866    0.2933 C   0  0  0  0  0  0  0  0  0  0  0  0
    0.2267    0.0951   -0.2285 C   0  0  0  0  0  0  0  0  0  0  0  0
   -1.1717    0.1708    0.4103 C   0  0  0  0  0  0  0  0  0  0  0  0
   -2.1183    1.1824   -0.2748 C   0  0  0  0  0  0  0  0  0  0  0  0
   -1.8523   -1.2131    0.3353 C   0  0  0  0  0  0  0  0  0  0  0  0
   -1.0445    0.5952    1.8894 C   0  0  0  0  0  0  0  0  0  0  0  0
   -0.0953    1.5817   -1.7909 H   0  0  0  0  0  0  0  0  0  0  0  0
    2.1392    1.4081   -2.7504 H   0  0  0  0  0  0  0  0  0  0  0  0
    3.8091   -0.1598   -1.7939 H   0  0  0  0  0  0  0  0  0  0  0  0
    3.0322   -2.1961    0.9792 H   0  0  0  0  0  0  0  0  0  0  0  0
    0.9537   -1.4120    1.1472 H   0  0  0  0  0  0  0  0  0  0  0  0
   -1.7189    2.2024   -0.2309 H   0  0  0  0  0  0  0  0  0  0  0  0
   -2.2887    0.9269   -1.3271 H   0  0  0  0  0  0  0  0  0  0  0  0
   -3.0993    1.1997    0.2151 H   0  0  0  0  0  0  0  0  0  0  0  0
   -1.3020   -1.9770    0.8954 H   0  0  0  0  0  0  0  0  0  0  0  0
   -2.8656   -1.1784    0.7525 H   0  0  0  0  0  0  0  0  0  0  0  0
   -1.9305   -1.5584   -0.7024 H   0  0  0  0  0  0  0  0  0  0  0  0
   -2.0304    0.6911    2.3592 H   0  0  0  0  0  0  0  0  0  0  0  0
   -0.4773   -0.1309    2.4820 H   0  0  0  0  0  0  0  0  0  0  0  0
   -0.5363    1.5625    1.9799 H   0  0  0  0  0  0  0  0  0  0  0  0
  1  2  1  0
  2  3  2  0
  3  4  1  0
  4  5  1  0
  4  6  2  0
  6  7  1  0
  7  8  1  0
  8  9  1  0
  8 10  1  0
  8 11  1  0
  7  1  2  0
  1 12  1  0
  2 13  1  0
  3 14  1  0
  5 15  1  0
  6 16  1  0
  9 17  1  0
  9 18  1  0
  9 19  1  0
 10 20  1  0
 10 21  1  0
 10 22  1  0
 11 23  1  0
 11 24  1  0
 11 25  1  0
M  END
>  <ofe-name>  (86) 
lig_0085

$$$$
lig_0086
     RDKit          3D

 17 17  0  0  0  0  0  0  0  0999 V2000
   -0.4135   -1.6318    0.2042 C   0  0  0  0  0  0  0  0  0  0  0  0
   -1.7909   -1.4050    0.2127 C   0  0  0  0  0  0  0  0  0  0  0  0
   -2.2783   -0.1087    0.0714 C   0  0  0  0  0  0  0  0  0  0  0  0
   -1.3852    0.9461   -0.0767 C   0  0  0  0  0  0  0  0  0  0  0  0
   -1.9089    2.1994   -0.2120 O   0  0  0  0  0  0  0  0  0  0  0  0
   -0.0068    0.7299   -0.0864 C   0  0  0  0  0  0  0  0  0  0  0  0
    0.4847   -0.5697    0.0552 C   0  0  0  0  0  0  0  0  0  0  0  0
    1.8032   -0.9356    0.0648 O   0  0  0  0  0  0  0  0  0  0  0  0
    2.7631    0.1025   -0.0831 C   0  0  0  0  0  0  0  0  0  0  0  0
   -0.0348   -2.6452    0.3148 H   0  0  0  0  0  0  0  0  0  0  0  0
   -2.4795   -2.2372    0.3291 H   0  0  0  0  0  0  0  0  0  0  0  0
   -3.3481    0.0793    0.0765 H   0  0  0  0  0  0  0  0  0  0  0  0
   -1.1810    2.8349   -0.3061 H   0  0  0  0  0  0  0  0  0  0  0  0
    0.6624    1.5727   -0.2036 H   0  0  0  0  0  0  0  0  0  0  0  0
    2.6553    0.6049   -1.0500 H   0  0  0  0  0  0  0  0  0  0  0  0
    2.7013    0.8178    0.7438 H   0  0  0  0  0  0  0  0  0  0  0  0
    3.7570   -0.3543   -0.0544 H   0  0  0  0  0  0  0  0  0  0  0  0
  1  2  1  0
  2  3  2  0
  3  4  1  0
  4  5  1  0
  4  6  2  0
  6  7  1  0
  7  8  1  0
  8  9  1  0
  7  1  2  0
  1 10  1  0
  2 11  1  0
  3 12  1  0
  5 13  1  0
  6 14  1  0
  9 15  1  0
  9 16  1  0
  9 17  1  0
M  END
>  <ofe-name>  (87) 
lig_0086

$$$$
lig_0087
     RDKit          3D

 20 20  0  0  0  0  0  0  0  0999 V2000
   -0.5020    1.2033    0.2789 C   0  0  0  0  0  0  0  0  0  0  0  0
   -1.8220    1.5450    0.5914 C   0  0  0  0  0  0  0  0  0  0  0  0
   -2.8076    0.5610    0.6399 C   0  0  0  0  0  0  0  0  0  0  0  0
   -2.4686   -0.7593    0.3759 C   0  0  0  0  0  0  0  0  0  0  0  0
   -3.4600   -1.6942    0.4329 O   0  0  0  0  0  0  0  0  0  0  0  0
   -1.1580   -1.1097    0.0640 C   0  0  0  0  0  0  0  0  0  0  0  0
   -0.1653   -0.1263    0.0139 C   0  0  0  0  0  0  0  0  0  0  0  0
    1.0817   -0.5926   -0.3027 O   0  0  0  0  0  0  0  0  0  0  0  0
    2.1359    0.3662   -0.3686 C   0  0  0  0  0  0  0  0  0  0  0  0
    3.4142   -0.3680   -0.7314 C   0  0  0  0  0  0  0  0  0  0  0  0
    0.2359    1.9979    0.2512 H   0  0  0  0  0  0  0  0  0  0  0  0
   -2.0815    2.5802    0.7972 H   0  0  0  0  0  0  0  0  0  0  0  0
   -3.8337    0.8219    0.8822 H   0  0  0  0  0  0  0  0  0  0  0  0
   -3.0752   -2.5622    0.2272 H   0  0  0  0  0  0  0  0  0  0  0  0
   -0.8887   -2.1406   -0.1431 H   0  0  0  0  0  0  0  0  0  0  0  0
    2.2677    0.8543    0.6040 H   0  0  0  0  0  0  0  0  0  0  0  0
    1.9220    1.1145   -1.1405 H   0  0  0  0  0  0  0  0  0  0  0  0
    3.3047   -0.8810   -1.6926 H   0  0  0  0  0  0  0  0  0  0  0  0
    3.6431   -1.1357    0.0153 H   0  0  0  0  0  0  0  0  0  0  0  0
    4.2575    0.3254   -0.7950 H   0  0  0  0  0  0  0  0  0  0  0  0
  1  2  1  0
  2  3  2  0
  3  4  1  0
  4  5  1  0
  4  6  2  0
  6  7  1  0
  7  8  1  0
  8  9  1  0
  9 10  1  0
  7  1  2  0
  1 11  1  0
  2 12  1  0
  3 13  1  0
  5 14  1  0
  6 15  1  0
  9 16  1  0
  9 17  1  0
 10 18  1  0
 10 19  1  0
 10 20  1  0
M  END
>  <ofe-name>  (88) 
lig_0087

$$$$
lig_0088
     RDKit          3D

 20 20  0  0  0  0  0  0  0  0999 V2000
   -0.9500    0.5835    0.8172 C   0  0  0  0  0  0  0  0  0  0  0  0
   -2.3445    0.5862    0.7031 C   0  0  0  0  0  0  0  0  0  0  0  0
   -2.9582   -0.0048   -0.3977 C   0  0  0  0  0  0  0  0  0  0  0  0
   -2.1742   -0.5956   -1.3786 C   0  0  0  0  0  0  0  0  0  0  0  0
   -2.8139   -1.1640   -2.4410 O   0  0  0  0  0  0  0  0  0  0  0  0
   -0.7837   -0.6041   -1.2752 C   0  0  0  0  0  0  0  0  0  0  0  0
   -0.1581   -0.0100   -0.1692 C   0  0  0  0  0  0  0  0  0  0  0  0
    1.2522   -0.0543   -0.1253 N   0  0  0  0  0  0  0  0  0  0  0  0
    2.0818    0.4684    0.8511 C   0  0  0  0  0  0  0  0  0  0  0  0
    1.7463    1.0881    1.8537 O   0  0  0  0  0  0  0  0  0  0  0  0
    3.5397    0.2255    0.5483 C   0  0  0  0  0  0  0  0  0  0  0  0
   -0.5150    1.0552    1.6929 H   0  0  0  0  0  0  0  0  0  0  0  0
   -2.9483    1.0519    1.4779 H   0  0  0  0  0  0  0  0  0  0  0  0
   -4.0405   -0.0042   -0.4889 H   0  0  0  0  0  0  0  0  0  0  0  0
   -2.1532   -1.5360   -3.0469 H   0  0  0  0  0  0  0  0  0  0  0  0
   -0.1891   -1.0714   -2.0529 H   0  0  0  0  0  0  0  0  0  0  0  0
    1.7055   -0.5157   -0.9032 H   0  0  0  0  0  0  0  0  0  0  0  0
    3.6883   -0.7671    0.1133 H   0  0  0  0  0  0  0  0  0  0  0  0
    4.1173    0.2785    1.4757 H   0  0  0  0  0  0  0  0  0  0  0  0
    3.8977    0.9897   -0.1465 H   0  0  0  0  0  0  0  0  0  0  0  0
  1  2  1  0
  2  3  2  0
  3  4  1  0
  4  5  1  0
  4  6  2  0
  6  7  1  0
  7  8  1  0
  8  9  1  0
  9 10  2  0
  9 11  1  0
  7  1  2  0
  1 12  1  0
  2 13  1  0
  3 14  1  0
  5 15  1  0
  6 16  1  0
  8 17  1  0
 11 18  1  0
 11 19  1  0
 11 20  1  0
M  END
>  <ofe-name>  (89) 
lig_0088

$$$$
lig_0089
     RDKit          3D

 23 24  0  0  0  0  0  0  0  0999 V2000
    1.2256    1.3732   -0.4255 C   0  0  0  0  0  0  0  0  0  0  0  0
    2.6139    1.4384   -0.5737 C   0  0  0  0  0  0  0  0  0  0  0  0
    3.3868    0.2948   -0.3912 C   0  0  0  0  0  0  0  0  0  0  0  0
    2.7681   -0.9039   -0.0622 C   0  0  0  0  0  0  0  0  0  0  0  0
    3.5613   -1.9999    0.1125 O   0  0  0  0  0  0  0  0  0  0  0  0
    1.3841   -0.9793    0.0856 C   0  0  0  0  0  0  0  0  0  0  0  0
    0.5876    0.1647   -0.0948 C   0  0  0  0  0  0  0  0  0  0  0  0
   -0.8745    0.0997    0.0594 C   0  0  0  0  0  0  0  0  0  0  0  0
   -1.6413   -0.8087   -0.6893 C   0  0  0  0  0  0  0  0  0  0  0  0
   -3.0297   -0.8714   -0.5426 C   0  0  0  0  0  0  0  0  0  0  0  0
   -3.6745   -0.0263    0.3570 C   0  0  0  0  0  0  0  0  0  0  0  0
   -2.9329    0.8816    1.1087 C   0  0  0  0  0  0  0  0  0  0  0  0
   -1.5448    0.9440    0.9600 C   0  0  0  0  0  0  0  0  0  0  0  0
    0.6372    2.2754   -0.5824 H   0  0  0  0  0  0  0  0  0  0  0  0
    3.0898    2.3801   -0.8336 H   0  0  0  0  0  0  0  0  0  0  0  0
    4.4661    0.3376   -0.5042 H   0  0  0  0  0  0  0  0  0  0  0  0
    2.9988   -2.7531    0.3564 H   0  0  0  0  0  0  0  0  0  0  0  0
    0.9125   -1.9209    0.3527 H   0  0  0  0  0  0  0  0  0  0  0  0
   -1.1585   -1.4688   -1.4071 H   0  0  0  0  0  0  0  0  0  0  0  0
   -3.6060   -1.5778   -1.1342 H   0  0  0  0  0  0  0  0  0  0  0  0
   -4.7542   -0.0743    0.4714 H   0  0  0  0  0  0  0  0  0  0  0  0
   -3.4327    1.5413    1.8132 H   0  0  0  0  0  0  0  0  0  0  0  0
   -0.9827    1.6536    1.5640 H   0  0  0  0  0  0  0  0  0  0  0  0
  1  2  1  0
  2  3  2  0
  3  4  1  0
  4  5  1  0
  4  6  2  0
  6  7  1  0
  7  8  1  0
  8  9  2  0
  9 10  1  0
 10 11  2  0
 11 12  1  0
 12 13  2  0
  7  1  2  0
 13  8  1  0
  1 14  1  0
  2 15  1  0
  3 16  1  0
  5 17  1  0
  6 18  1  0
  9 19  1  0
 10 20  1  0
 11 21  1  0
 12 22  1  0
 13 23  1  0
M  END
>  <ofe-name>  (90) 
lig_0089

$$$$
lig_0090
     RDKit          3D

 20 20  0  0  0  0  0  0  0  0999 V2000
   -1.2371   -1.0520    0.8297 C   0  0  0  0  0  0  0  0  0  0  0  0
   -0.0574   -1.4395    1.4646 C   0  0  0  0  0  0  0  0  0  0  0  0
    1.1727   -0.9764    0.9984 C   0  0  0  0  0  0  0  0  0  0  0  0
    1.2350   -0.1237   -0.1109 C   0  0  0  0  0  0  0  0  0  0  0  0
    2.5595    0.4060   -0.5913 C   0  0  0  0  0  0  0  0  0  0  0  0
    2.8876    1.6169    0.0759 O   0  0  0  0  0  0  0  0  0  0  0  0
    0.0429    0.2724   -0.7348 C   0  0  0  0  0  0  0  0  0  0  0  0
   -1.1974   -0.2000   -0.2812 C   0  0  0  0  0  0  0  0  0  0  0  0
   -2.4727    0.2482   -0.9435 C   0  0  0  0  0  0  0  0  0  0  0  0
   -2.9651    1.4335   -0.3338 O   0  0  0  0  0  0  0  0  0  0  0  0
   -2.1902   -1.4160    1.2085 H   0  0  0  0  0  0  0  0  0  0  0  0
   -0.0969   -2.1012    2.3264 H   0  0  0  0  0  0  0  0  0  0  0  0
    2.0847   -1.2819    1.5077 H   0  0  0  0  0  0  0  0  0  0  0  0
    3.3581   -0.3207   -0.4079 H   0  0  0  0  0  0  0  0  0  0  0  0
    2.5352    0.5968   -1.6693 H   0  0  0  0  0  0  0  0  0  0  0  0
    2.1836    1.8033    0.7202 H   0  0  0  0  0  0  0  0  0  0  0  0
    0.0807    0.9565   -1.5820 H   0  0  0  0  0  0  0  0  0  0  0  0
   -2.3104    0.4447   -2.0085 H   0  0  0  0  0  0  0  0  0  0  0  0
   -3.2421   -0.5276   -0.8697 H   0  0  0  0  0  0  0  0  0  0  0  0
   -2.3707    1.6605    0.4015 H   0  0  0  0  0  0  0  0  0  0  0  0
  1  2  1  0
  2  3  2  0
  3  4  1  0
  4  5  1  0
  5  6  1  0
  4  7  2  0
  7  8  1  0
  8  9  1  0
  9 10  1  0
  8  1  2  0
  1 11  1  0
  2 12  1  0
  3 13  1  0
  5 14  1  0
  5 15  1  0
  6 16  1  0
  7 17  1  0
  9 18  1  0
  9 19  1  0
 10 20  1  0
M  END
>  <ofe-name>  (91) 
lig_0090

$$$$
lig_0091
     RDKit          3D

 18 18  0  0  0  0  0  0  0  0999 V2000
   -1.7611    0.5847    0.6306 C   0  0  0  0  0  0  0  0  0  0  0  0
   -0.8303    1.6153    0.7751 C   0  0  0  0  0  0  0  0  0  0  0  0
    0.4716    1.4509    0.3060 C   0  0  0  0  0  0  0  0  0  0  0  0
    0.8419    0.2641   -0.3364 C   0  0  0  0  0  0  0  0  0  0  0  0
    2.2433    0.0773   -0.8498 C   0  0  0  0  0  0  0  0  0  0  0  0
    3.0648   -0.5214    0.1438 O   0  0  0  0  0  0  0  0  0  0  0  0
   -0.1017   -0.7682   -0.4611 C   0  0  0  0  0  0  0  0  0  0  0  0
   -1.3919   -0.6352    0.0605 C   0  0  0  0  0  0  0  0  0  0  0  0
   -2.3551   -1.6210   -0.1820 N   0  0  0  0  0  0  0  0  0  0  0  0
   -2.7805    0.7423    0.9726 H   0  0  0  0  0  0  0  0  0  0  0  0
   -1.1262    2.5506    1.2431 H   0  0  0  0  0  0  0  0  0  0  0  0
    1.1894    2.2596    0.4262 H   0  0  0  0  0  0  0  0  0  0  0  0
    2.2507   -0.5603   -1.7401 H   0  0  0  0  0  0  0  0  0  0  0  0
    2.6856    1.0379   -1.1343 H   0  0  0  0  0  0  0  0  0  0  0  0
    2.5266   -0.6335    0.9461 H   0  0  0  0  0  0  0  0  0  0  0  0
    0.1782   -1.6875   -0.9712 H   0  0  0  0  0  0  0  0  0  0  0  0
   -3.1347   -1.6021    0.4677 H   0  0  0  0  0  0  0  0  0  0  0  0
   -1.9707   -2.5534   -0.2967 H   0  0  0  0  0  0  0  0  0  0  0  0
  1  2  2  0
  2  3  1  0
  3  4  2  0
  4  5  1  0
  5  6  1  0
  4  7  1  0
  7  8  2  0
  8  9  1  0
  8  1  1  0
  1 10  1  0
  2 11  1  0
  3 12  1  0
  5 13  1  0
  5 14  1  0
  6 15  1  0
  7 16  1  0
  9 17  1  0
  9 18  1  0
M  END
>  <ofe-name>  (92) 
lig_0091

$$$$
lig_0092
     RDKit          3D

 21 21  0  0  0  0  0  0  0  0999 V2000
   -1.1486    1.3905    0.2840 C   0  0  0  0  0  0  0  0  0  0  0  0
    0.0474    2.0857    0.4594 C   0  0  0  0  0  0  0  0  0  0  0  0
    1.2688    1.4268    0.3128 C   0  0  0  0  0  0  0  0  0  0  0  0
    1.3103    0.0666   -0.0230 C   0  0  0  0  0  0  0  0  0  0  0  0
    2.6348   -0.6398   -0.1432 C   0  0  0  0  0  0  0  0  0  0  0  0
    2.5797   -1.6555   -1.1368 O   0  0  0  0  0  0  0  0  0  0  0  0
    0.0994   -0.6249   -0.1813 C   0  0  0  0  0  0  0  0  0  0  0  0
   -1.1352    0.0255   -0.0289 C   0  0  0  0  0  0  0  0  0  0  0  0
   -2.4235   -0.7247   -0.2459 C   0  0  0  0  0  0  0  0  0  0  0  0
   -2.8094   -0.7159   -1.6525 N   0  0  0  0  0  0  0  0  0  0  0  0
   -2.0932    1.9184    0.3944 H   0  0  0  0  0  0  0  0  0  0  0  0
    0.0279    3.1432    0.7097 H   0  0  0  0  0  0  0  0  0  0  0  0
    2.1905    1.9858    0.4577 H   0  0  0  0  0  0  0  0  0  0  0  0
    2.8949   -1.0972    0.8169 H   0  0  0  0  0  0  0  0  0  0  0  0
    3.4220    0.0651   -0.4303 H   0  0  0  0  0  0  0  0  0  0  0  0
    3.4670   -2.0483   -1.1811 H   0  0  0  0  0  0  0  0  0  0  0  0
    0.1211   -1.6841   -0.4354 H   0  0  0  0  0  0  0  0  0  0  0  0
   -2.3185   -1.7593    0.1006 H   0  0  0  0  0  0  0  0  0  0  0  0
   -3.2247   -0.2804    0.3557 H   0  0  0  0  0  0  0  0  0  0  0  0
   -2.8606    0.2525   -1.9664 H   0  0  0  0  0  0  0  0  0  0  0  0
   -2.0501   -1.1297   -2.1939 H   0  0  0  0  0  0  0  0  0  0  0  0
  1  2  1  0
  2  3  2  0
  3  4  1  0
  4  5  1  0
  5  6  1  0
  4  7  2  0
  7  8  1  0
  8  9  1  0
  9 10  1  0
  8  1  2  0
  1 11  1  0
  2 12  1  0
  3 13  1  0
  5 14  1  0
  5 15  1  0
  6 16  1  0
  7 17  1  0
  9 18  1  0
  9 19  1  0
 10 20  1  0
 10 21  1  0
M  END
>  <ofe-name>  (93) 
lig_0092

$$$$
lig_0093
     RDKit          3D

 16 16  0  0  0  0  0  0  0  0999 V2000
    2.1825    0.3156   -0.1594 C   0  0  0  0  0  0  0  0  0  0  0  0
    1.3855    1.2852    0.4460 C   0  0  0  0  0  0  0  0  0  0  0  0
    0.0208    1.0487    0.6322 C   0  0  0  0  0  0  0  0  0  0  0  0
   -0.5575   -0.1628    0.2218 C   0  0  0  0  0  0  0  0  0  0  0  0
   -2.0326   -0.3990    0.3990 C   0  0  0  0  0  0  0  0  0  0  0  0
   -2.7679    0.2138   -0.6507 O   0  0  0  0  0  0  0  0  0  0  0  0
    0.2505   -1.1256   -0.3963 C   0  0  0  0  0  0  0  0  0  0  0  0
    1.6081   -0.8793   -0.5762 C   0  0  0  0  0  0  0  0  0  0  0  0
    2.3729   -1.8082   -1.1647 F   0  0  0  0  0  0  0  0  0  0  0  0
    3.2437    0.4839   -0.3117 H   0  0  0  0  0  0  0  0  0  0  0  0
    1.8244    2.2253    0.7711 H   0  0  0  0  0  0  0  0  0  0  0  0
   -0.5941    1.8165    1.0995 H   0  0  0  0  0  0  0  0  0  0  0  0
   -2.3776    0.0096    1.3547 H   0  0  0  0  0  0  0  0  0  0  0  0
   -2.2600   -1.4702    0.4016 H   0  0  0  0  0  0  0  0  0  0  0  0
   -2.1356    0.5155   -1.3251 H   0  0  0  0  0  0  0  0  0  0  0  0
   -0.1632   -2.0688   -0.7418 H   0  0  0  0  0  0  0  0  0  0  0  0
  1  2  2  0
  2  3  1  0
  3  4  2  0
  4  5  1  0
  5  6  1  0
  4  7  1  0
  7  8  2  0
  8  9  1  0
  8  1  1  0
  1 10  1  0
  2 11  1  0
  3 12  1  0
  5 13  1  0
  5 14  1  0
  6 15  1  0
  7 16  1  0
M  END
>  <ofe-name>  (94) 
lig_0093

$$$$
lig_0094
     RDKit          3D

 16 16  0  0  0  0  0  0  0  0999 V2000
   -2.2212    0.6176   -0.1413 C   0  0  0  0  0  0  0  0  0  0  0  0
   -1.2065    1.5727   -0.1694 C   0  0  0  0  0  0  0  0  0  0  0  0
    0.1286    1.1769   -0.0587 C   0  0  0  0  0  0  0  0  0  0  0  0
    0.4688   -0.1783    0.0705 C   0  0  0  0  0  0  0  0  0  0  0  0
    1.9006   -0.6167    0.2316 C   0  0  0  0  0  0  0  0  0  0  0  0
    2.7765    0.2374   -0.4919 O   0  0  0  0  0  0  0  0  0  0  0  0
   -0.5624   -1.1292    0.1109 C   0  0  0  0  0  0  0  0  0  0  0  0
   -1.8950   -0.7289    0.0003 C   0  0  0  0  0  0  0  0  0  0  0  0
   -3.1462   -1.9103    0.0450 Cl  0  0  0  0  0  0  0  0  0  0  0  0
   -3.2585    0.9285   -0.2280 H   0  0  0  0  0  0  0  0  0  0  0  0
   -1.4517    2.6261   -0.2779 H   0  0  0  0  0  0  0  0  0  0  0  0
    0.9118    1.9333   -0.0817 H   0  0  0  0  0  0  0  0  0  0  0  0
    2.0353   -1.6340   -0.1505 H   0  0  0  0  0  0  0  0  0  0  0  0
    2.1754   -0.5903    1.2910 H   0  0  0  0  0  0  0  0  0  0  0  0
    3.6724   -0.1202   -0.3762 H   0  0  0  0  0  0  0  0  0  0  0  0
   -0.3279   -2.1846    0.2263 H   0  0  0  0  0  0  0  0  0  0  0  0
  1  2  2  0
  2  3  1  0
  3  4  2  0
  4  5  1  0
  5  6  1  0
  4  7  1  0
  7  8  2  0
  8  9  1  0
  8  1  1  0
  1 10  1  0
  2 11  1  0
  3 12  1  0
  5 13  1  0
  5 14  1  0
  6 15  1  0
  7 16  1  0
M  END
>  <ofe-name>  (95) 
lig_0094

$$$$
lig_0095
     RDKit          3D

 16 16  0  0  0  0  0  0  0  0999 V2000
   -2.1427    0.0510   -0.4707 C   0  0  0  0  0  0  0  0  0  0  0  0
   -1.4914   -1.1811   -0.4204 C   0  0  0  0  0  0  0  0  0  0  0  0
   -0.1521   -1.2490   -0.0319 C   0  0  0  0  0  0  0  0  0  0  0  0
    0.5472   -0.0852    0.3190 C   0  0  0  0  0  0  0  0  0  0  0  0
    1.9994   -0.1576    0.7068 C   0  0  0  0  0  0  0  0  0  0  0  0
    2.8301   -0.0851   -0.4433 O   0  0  0  0  0  0  0  0  0  0  0  0
   -0.1103    1.1515    0.2536 C   0  0  0  0  0  0  0  0  0  0  0  0
   -1.4488    1.2118   -0.1353 C   0  0  0  0  0  0  0  0  0  0  0  0
   -2.3275    2.8841   -0.2130 Br  0  0  0  0  0  0  0  0  0  0  0  0
   -3.1853    0.0953   -0.7743 H   0  0  0  0  0  0  0  0  0  0  0  0
   -2.0267   -2.0895   -0.6861 H   0  0  0  0  0  0  0  0  0  0  0  0
    0.3462   -2.2166   -0.0046 H   0  0  0  0  0  0  0  0  0  0  0  0
    2.2140   -1.0927    1.2348 H   0  0  0  0  0  0  0  0  0  0  0  0
    2.2645    0.6640    1.3805 H   0  0  0  0  0  0  0  0  0  0  0  0
    2.2587    0.0347   -1.2210 H   0  0  0  0  0  0  0  0  0  0  0  0
    0.4249    2.0645    0.5058 H   0  0  0  0  0  0  0  0  0  0  0  0
  1  2  2  0
  2  3  1  0
  3  4  2  0
  4  5  1  0
  5  6  1  0
  4  7  1  0
  7  8  2  0
  8  9  1  0
  8  1  1  0
  1 10  1  0
  2 11  1  0
  3 12  1  0
  5 13  1  0
  5 14  1  0
  6 15  1  0
  7 16  1  0
M  END
>  <ofe-name>  (96) 
lig_0095

$$$$
lig_0096
     RDKit          3D

 19 19  0  0  0  0  0  0  0  0999 V2000
    1.2568    1.2866   -0.1336 C   0  0  0  0  0  0  0  0  0  0  0  0
    0.0487    1.9836   -0.1801 C   0  0  0  0  0  0  0  0  0  0  0  0
   -1.1585    1.3029   -0.0157 C   0  0  0  0  0  0  0  0  0  0  0  0
   -1.1730   -0.0819    0.2027 C   0  0  0  0  0  0  0  0  0  0  0  0
   -2.4817   -0.8089    0.3581 C   0  0  0  0  0  0  0  0  0  0  0  0
   -3.1332   -0.9352   -0.8982 O   0  0  0  0  0  0  0  0  0  0  0  0
    0.0440   -0.7778    0.2391 C   0  0  0  0  0  0  0  0  0  0  0  0
    1.2589   -0.0973    0.0750 C   0  0  0  0  0  0  0  0  0  0  0  0
    2.5157   -0.8829    0.1274 C   0  0  0  0  0  0  0  0  0  0  0  0
    2.5968   -2.0849    0.3003 O   0  0  0  0  0  0  0  0  0  0  0  0
    3.6143   -0.1259   -0.0404 O   0  0  0  0  0  0  0  0  0  0  0  0
    2.1892    1.8308   -0.2632 H   0  0  0  0  0  0  0  0  0  0  0  0
    0.0479    3.0584   -0.3461 H   0  0  0  0  0  0  0  0  0  0  0  0
   -2.0950    1.8572   -0.0604 H   0  0  0  0  0  0  0  0  0  0  0  0
   -3.1417   -0.2700    1.0458 H   0  0  0  0  0  0  0  0  0  0  0  0
   -2.3291   -1.8126    0.7681 H   0  0  0  0  0  0  0  0  0  0  0  0
   -2.4631   -0.8184   -1.5933 H   0  0  0  0  0  0  0  0  0  0  0  0
    0.0501   -1.8558    0.3966 H   0  0  0  0  0  0  0  0  0  0  0  0
    4.3528   -0.7678    0.0179 H   0  0  0  0  0  0  0  0  0  0  0  0
  1  2  2  0
  2  3  1  0
  3  4  2  0
  4  5  1  0
  5  6  1  0
  4  7  1  0
  7  8  2  0
  8  9  1  0
  9 10  2  0
  9 11  1  0
  8  1  1  0
  1 12  1  0
  2 13  1  0
  3 14  1  0
  5 15  1  0
  5 16  1  0
  6 17  1  0
  7 18  1  0
 11 19  1  0
M  END
>  <ofe-name>  (97) 
lig_0096

$$$$
lig_0097
     RDKit          3D

 20 20  0  0  0  0  0  0  0  0999 V2000
    0.7948   -1.5727    0.9409 C   0  0  0  0  0  0  0  0  0  0  0  0
   -0.5179   -1.8045    1.3527 C   0  0  0  0  0  0  0  0  0  0  0  0
   -1.5257   -0.8990    1.0188 C   0  0  0  0  0  0  0  0  0  0  0  0
   -1.2317    0.2441    0.2641 C   0  0  0  0  0  0  0  0  0  0  0  0
   -2.3155    1.2173   -0.1159 C   0  0  0  0  0  0  0  0  0  0  0  0
   -2.4404    1.2904   -1.5294 O   0  0  0  0  0  0  0  0  0  0  0  0
    0.0935    0.4719   -0.1457 C   0  0  0  0  0  0  0  0  0  0  0  0
    1.1102   -0.4285    0.1989 C   0  0  0  0  0  0  0  0  0  0  0  0
    2.5243   -0.2285   -0.2187 C   0  0  0  0  0  0  0  0  0  0  0  0
    3.3251   -1.1546   -0.2425 O   0  0  0  0  0  0  0  0  0  0  0  0
    2.9168    1.0405   -0.5434 N   0  0  0  0  0  0  0  0  0  0  0  0
    1.5743   -2.2866    1.2015 H   0  0  0  0  0  0  0  0  0  0  0  0
   -0.7538   -2.6941    1.9320 H   0  0  0  0  0  0  0  0  0  0  0  0
   -2.5442   -1.0982    1.3470 H   0  0  0  0  0  0  0  0  0  0  0  0
   -2.0838    2.2145    0.2719 H   0  0  0  0  0  0  0  0  0  0  0  0
   -3.2846    0.9146    0.2939 H   0  0  0  0  0  0  0  0  0  0  0  0
   -2.2407    0.4067   -1.8846 H   0  0  0  0  0  0  0  0  0  0  0  0
    0.3078    1.3438   -0.7591 H   0  0  0  0  0  0  0  0  0  0  0  0
    3.9083    1.1667   -0.7040 H   0  0  0  0  0  0  0  0  0  0  0  0
    2.3831    1.8562   -0.2814 H   0  0  0  0  0  0  0  0  0  0  0  0
  1  2  2  0
  2  3  1  0
  3  4  2  0
  4  5  1  0
  5  6  1  0
  4  7  1  0
  7  8  2  0
  8  9  1  0
  9 10  2  0
  9 11  1  0
  8  1  1  0
  1 12  1  0
  2 13  1  0
  3 14  1  0
  5 15  1  0
  5 16  1  0
  6 17  1  0
  7 18  1  0
 11 19  1  0
 11 20  1  0
M  END
>  <ofe-name>  (98) 
lig_0097

$$$$
lig_0098
     RDKit          3D

 17 17  0  0  0  0  0  0  0  0999 V2000
   -2.0363   -0.2528    0.6546 C   0  0  0  0  0  0  0  0  0  0  0  0
   -1.3203   -1.4505    0.6335 C   0  0  0  0  0  0  0  0  0  0  0  0
    0.0223   -1.4561    0.2554 C   0  0  0  0  0  0  0  0  0  0  0  0
    0.6593   -0.2637   -0.1105 C   0  0  0  0  0  0  0  0  0  0  0  0
    2.1167   -0.2558   -0.4853 C   0  0  0  0  0  0  0  0  0  0  0  0
    2.9159    0.1356    0.6221 O   0  0  0  0  0  0  0  0  0  0  0  0
   -0.0665    0.9375   -0.0756 C   0  0  0  0  0  0  0  0  0  0  0  0
   -1.4144    0.9453    0.2969 C   0  0  0  0  0  0  0  0  0  0  0  0
   -2.3348    2.4670    0.3476 S   0  0  0  0  0  0  0  0  0  0  0  0
   -3.0816   -0.2632    0.9549 H   0  0  0  0  0  0  0  0  0  0  0  0
   -1.8101   -2.3792    0.9159 H   0  0  0  0  0  0  0  0  0  0  0  0
    0.5695   -2.3970    0.2516 H   0  0  0  0  0  0  0  0  0  0  0  0
    2.4426   -1.2484   -0.8133 H   0  0  0  0  0  0  0  0  0  0  0  0
    2.2990    0.4373   -1.3133 H   0  0  0  0  0  0  0  0  0  0  0  0
    2.3516    0.1331    1.4144 H   0  0  0  0  0  0  0  0  0  0  0  0
    0.4339    1.8688   -0.3351 H   0  0  0  0  0  0  0  0  0  0  0  0
   -1.7467    3.0423   -0.7113 H   0  0  0  0  0  0  0  0  0  0  0  0
  1  2  2  0
  2  3  1  0
  3  4  2  0
  4  5  1  0
  5  6  1  0
  4  7  1  0
  7  8  2  0
  8  9  1  0
  8  1  1  0
  1 10  1  0
  2 11  1  0
  3 12  1  0
  5 13  1  0
  5 14  1  0
  6 15  1  0
  7 16  1  0
  9 17  1  0
M  END
>  <ofe-name>  (99) 
lig_0098

$$$$
lig_0099
     RDKit          3D

 20 20  0  0  0  0  0  0  0  0999 V2000
    1.1191   -0.9053    1.1914 C   0  0  0  0  0  0  0  0  0  0  0  0
   -0.0635   -0.8661    1.9299 C   0  0  0  0  0  0  0  0  0  0  0  0
   -1.2442   -0.4187    1.3380 C   0  0  0  0  0  0  0  0  0  0  0  0
   -1.2539   -0.0107   -0.0011 C   0  0  0  0  0  0  0  0  0  0  0  0
   -2.5157    0.5073   -0.6369 C   0  0  0  0  0  0  0  0  0  0  0  0
   -2.5168    1.9283   -0.6531 O   0  0  0  0  0  0  0  0  0  0  0  0
   -0.0576   -0.0433   -0.7340 C   0  0  0  0  0  0  0  0  0  0  0  0
    1.1346   -0.4984   -0.1497 C   0  0  0  0  0  0  0  0  0  0  0  0
    2.4162   -0.5216   -0.9410 C   0  0  0  0  0  0  0  0  0  0  0  0
    3.4073    0.9724   -0.6711 S   0  0  0  0  0  0  0  0  0  0  0  0
    2.0339   -1.2481    1.6712 H   0  0  0  0  0  0  0  0  0  0  0  0
   -0.0627   -1.1798    2.9709 H   0  0  0  0  0  0  0  0  0  0  0  0
   -2.1562   -0.3870    1.9305 H   0  0  0  0  0  0  0  0  0  0  0  0
   -3.4002    0.1674   -0.0881 H   0  0  0  0  0  0  0  0  0  0  0  0
   -2.6088    0.1429   -1.6653 H   0  0  0  0  0  0  0  0  0  0  0  0
   -1.8346    2.2307   -0.0289 H   0  0  0  0  0  0  0  0  0  0  0  0
   -0.0594    0.2934   -1.7701 H   0  0  0  0  0  0  0  0  0  0  0  0
    2.1998   -0.6113   -2.0113 H   0  0  0  0  0  0  0  0  0  0  0  0
    3.0116   -1.3994   -0.6667 H   0  0  0  0  0  0  0  0  0  0  0  0
    2.4511    1.8472   -1.0145 H   0  0  0  0  0  0  0  0  0  0  0  0
  1  2  1  0
  2  3  2  0
  3  4  1  0
  4  5  1  0
  5  6  1  0
  4  7  2  0
  7  8  1  0
  8  9  1  0
  9 10  1  0
  8  1  2  0
  1 11  1  0
  2 12  1  0
  3 13  1  0
  5 14  1  0
  5 15  1  0
  6 16  1  0
  7 17  1  0
  9 18  1  0
  9 19  1  0
 10 20  1  0
M  END
>  <ofe-name>  (100) 
lig_0099

$$$$
lig_0100
     RDKit          3D

 28 28  0  0  0  0  0  0  0  0999 V2000
    0.2155   -1.6093   -0.6789 C   0  0  0  0  0  0  0  0  0  0  0  0
    1.5699   -1.9220   -0.8293 C   0  0  0  0  0  0  0  0  0  0  0  0
    2.5479   -0.9811   -0.5214 C   0  0  0  0  0  0  0  0  0  0  0  0
    2.1788    0.2870   -0.0680 C   0  0  0  0  0  0  0  0  0  0  0  0
    3.2261    1.3024    0.3013 C   0  0  0  0  0  0  0  0  0  0  0  0
    3.5227    1.2336    1.6897 O   0  0  0  0  0  0  0  0  0  0  0  0
    0.8152    0.5856    0.0912 C   0  0  0  0  0  0  0  0  0  0  0  0
   -0.1951   -0.3499   -0.2134 C   0  0  0  0  0  0  0  0  0  0  0  0
   -1.6762    0.0258   -0.0287 C   0  0  0  0  0  0  0  0  0  0  0  0
   -2.6598   -1.1033   -0.4113 C   0  0  0  0  0  0  0  0  0  0  0  0
   -1.9409    0.3797    1.4507 C   0  0  0  0  0  0  0  0  0  0  0  0
   -2.0170    1.2456   -0.9120 C   0  0  0  0  0  0  0  0  0  0  0  0
   -0.5046   -2.3819   -0.9341 H   0  0  0  0  0  0  0  0  0  0  0  0
    1.8595   -2.9072   -1.1869 H   0  0  0  0  0  0  0  0  0  0  0  0
    3.5973   -1.2431   -0.6361 H   0  0  0  0  0  0  0  0  0  0  0  0
    2.8842    2.3158    0.0660 H   0  0  0  0  0  0  0  0  0  0  0  0
    4.1507    1.1326   -0.2604 H   0  0  0  0  0  0  0  0  0  0  0  0
    3.0091    0.4979    2.0656 H   0  0  0  0  0  0  0  0  0  0  0  0
    0.5449    1.5729    0.4637 H   0  0  0  0  0  0  0  0  0  0  0  0
   -2.5056   -1.9982    0.2029 H   0  0  0  0  0  0  0  0  0  0  0  0
   -2.5558   -1.3893   -1.4644 H   0  0  0  0  0  0  0  0  0  0  0  0
   -3.6998   -0.7878   -0.2645 H   0  0  0  0  0  0  0  0  0  0  0  0
   -1.3617    1.2496    1.7792 H   0  0  0  0  0  0  0  0  0  0  0  0
   -2.9981    0.6177    1.6171 H   0  0  0  0  0  0  0  0  0  0  0  0
   -1.6797   -0.4572    2.1092 H   0  0  0  0  0  0  0  0  0  0  0  0
   -3.0770    1.5120   -0.8260 H   0  0  0  0  0  0  0  0  0  0  0  0
   -1.4405    2.1342   -0.6327 H   0  0  0  0  0  0  0  0  0  0  0  0
   -1.8099    1.0376   -1.9685 H   0  0  0  0  0  0  0  0  0  0  0  0
  1  2  1  0
  2  3  2  0
  3  4  1  0
  4  5  1  0
  5  6  1  0
  4  7  2  0
  7  8  1  0
  8  9  1  0
  9 10  1  0
  9 11  1  0
  9 12  1  0
  8  1  2  0
  1 13  1  0
  2 14  1  0
  3 15  1  0
  5 16  1  0
  5 17  1  0
  6 18  1  0
  7 19  1  0
 10 20  1  0
 10 21  1  0
 10 22  1  0
 11 23  1  0
 11 24  1  0
 11 25  1  0
 12 26  1  0
 12 27  1  0
 12 28  1  0
M  END
>  <ofe-name>  (101) 
lig_0100

$$$$
lig_0101
     RDKit          3D

 20 20  0  0  0  0  0  0  0  0999 V2000
    1.1335    1.0532    0.0819 C   0  0  0  0  0  0  0  0  0  0  0  0
    0.0106    1.8849    0.0974 C   0  0  0  0  0  0  0  0  0  0  0  0
   -1.2710    1.3362    0.1322 C   0  0  0  0  0  0  0  0  0  0  0  0
   -1.4432   -0.0524    0.1602 C   0  0  0  0  0  0  0  0  0  0  0  0
   -2.8244   -0.6474    0.1677 C   0  0  0  0  0  0  0  0  0  0  0  0
   -3.3669   -0.6647   -1.1458 O   0  0  0  0  0  0  0  0  0  0  0  0
   -0.3097   -0.8772    0.1326 C   0  0  0  0  0  0  0  0  0  0  0  0
    0.9780   -0.3328    0.0975 C   0  0  0  0  0  0  0  0  0  0  0  0
    1.9867   -1.2565    0.0783 O   0  0  0  0  0  0  0  0  0  0  0  0
    3.3170   -0.7549    0.0537 C   0  0  0  0  0  0  0  0  0  0  0  0
    2.1125    1.5193    0.0542 H   0  0  0  0  0  0  0  0  0  0  0  0
    0.1364    2.9648    0.0797 H   0  0  0  0  0  0  0  0  0  0  0  0
   -2.1367    1.9958    0.1351 H   0  0  0  0  0  0  0  0  0  0  0  0
   -3.4916   -0.0700    0.8162 H   0  0  0  0  0  0  0  0  0  0  0  0
   -2.8073   -1.6740    0.5482 H   0  0  0  0  0  0  0  0  0  0  0  0
   -2.6353   -0.5123   -1.7686 H   0  0  0  0  0  0  0  0  0  0  0  0
   -0.4227   -1.9598    0.1381 H   0  0  0  0  0  0  0  0  0  0  0  0
    3.9973   -1.6120    0.0468 H   0  0  0  0  0  0  0  0  0  0  0  0
    3.5336   -0.1653    0.9507 H   0  0  0  0  0  0  0  0  0  0  0  0
    3.5033   -0.1749   -0.8562 H   0  0  0  0  0  0  0  0  0  0  0  0
  1  2  2  0
  2  3  1  0
  3  4  2  0
  4  5  1  0
  5  6  1  0
  4  7  1  0
  7  8  2  0
  8  9  1  0
  9 10  1  0
  8  1  1  0
  1 11  1  0
  2 12  1  0
  3 13  1  0
  5 14  1  0
  5 15  1  0
  6 16  1  0
  7 17  1  0
 10 18  1  0
 10 19  1  0
 10 20  1  0
M  END
>  <ofe-name>  (102) 
lig_0101

$$$$
lig_0102
     RDKit          3D

 23 23  0  0  0  0  0  0  0  0999 V2000
   -0.1207   -1.0222   -1.2191 C   0  0  0  0  0  0  0  0  0  0  0  0
   -1.4946   -1.1614   -1.4335 C   0  0  0  0  0  0  0  0  0  0  0  0
   -2.3981   -0.3334   -0.7680 C   0  0  0  0  0  0  0  0  0  0  0  0
   -1.9359    0.6497    0.1143 C   0  0  0  0  0  0  0  0  0  0  0  0
   -2.9089    1.5242    0.8561 C   0  0  0  0  0  0  0  0  0  0  0  0
   -3.4330    0.8399    1.9860 O   0  0  0  0  0  0  0  0  0  0  0  0
   -0.5560    0.7724    0.3304 C   0  0  0  0  0  0  0  0  0  0  0  0
    0.3548   -0.0551   -0.3339 C   0  0  0  0  0  0  0  0  0  0  0  0
    1.6667    0.1819   -0.0281 O   0  0  0  0  0  0  0  0  0  0  0  0
    2.6427   -0.6252   -0.6843 C   0  0  0  0  0  0  0  0  0  0  0  0
    4.0138   -0.1854   -0.2033 C   0  0  0  0  0  0  0  0  0  0  0  0
    0.5483   -1.6861   -1.7557 H   0  0  0  0  0  0  0  0  0  0  0  0
   -1.8612   -1.9203   -2.1204 H   0  0  0  0  0  0  0  0  0  0  0  0
   -3.4658   -0.4588   -0.9379 H   0  0  0  0  0  0  0  0  0  0  0  0
   -2.4250    2.4435    1.2024 H   0  0  0  0  0  0  0  0  0  0  0  0
   -3.7397    1.8178    0.2060 H   0  0  0  0  0  0  0  0  0  0  0  0
   -2.8674    0.0656    2.1498 H   0  0  0  0  0  0  0  0  0  0  0  0
   -0.1770    1.5205    1.0245 H   0  0  0  0  0  0  0  0  0  0  0  0
    2.5834   -0.4871   -1.7701 H   0  0  0  0  0  0  0  0  0  0  0  0
    2.4964   -1.6813   -0.4298 H   0  0  0  0  0  0  0  0  0  0  0  0
    4.0951   -0.2963    0.8832 H   0  0  0  0  0  0  0  0  0  0  0  0
    4.1803    0.8732   -0.4290 H   0  0  0  0  0  0  0  0  0  0  0  0
    4.8019   -0.7762   -0.6786 H   0  0  0  0  0  0  0  0  0  0  0  0
  1  2  2  0
  2  3  1  0
  3  4  2  0
  4  5  1  0
  5  6  1  0
  4  7  1  0
  7  8  2  0
  8  9  1  0
  9 10  1  0
 10 11  1  0
  8  1  1  0
  1 12  1  0
  2 13  1  0
  3 14  1  0
  5 15  1  0
  5 16  1  0
  6 17  1  0
  7 18  1  0
 10 19  1  0
 10 20  1  0
 11 21  1  0
 11 22  1  0
 11 23  1  0
M  END
>  <ofe-name>  (103) 
lig_0102

$$$$
lig_0103
     RDKit          3D

 23 23  0  0  0  0  0  0  0  0999 V2000
    0.3076   -1.5871    0.4909 C   0  0  0  0  0  0  0  0  0  0  0  0
   -0.9567   -2.1206    0.7531 C   0  0  0  0  0  0  0  0  0  0  0  0
   -2.0999   -1.3413    0.5797 C   0  0  0  0  0  0  0  0  0  0  0  0
   -1.9949   -0.0181    0.1334 C   0  0  0  0  0  0  0  0  0  0  0  0
   -3.2407    0.8163   -0.0129 C   0  0  0  0  0  0  0  0  0  0  0  0
   -3.0260    1.9317   -0.8691 O   0  0  0  0  0  0  0  0  0  0  0  0
   -0.7159    0.5073   -0.1140 C   0  0  0  0  0  0  0  0  0  0  0  0
    0.4397   -0.2691    0.0564 C   0  0  0  0  0  0  0  0  0  0  0  0
    1.6748    0.3481   -0.2310 N   0  0  0  0  0  0  0  0  0  0  0  0
    2.9385   -0.2022   -0.1240 C   0  0  0  0  0  0  0  0  0  0  0  0
    3.2261   -1.3268    0.2700 O   0  0  0  0  0  0  0  0  0  0  0  0
    4.0187    0.7707   -0.5279 C   0  0  0  0  0  0  0  0  0  0  0  0
    1.1701   -2.2296    0.6367 H   0  0  0  0  0  0  0  0  0  0  0  0
   -1.0447   -3.1490    1.0947 H   0  0  0  0  0  0  0  0  0  0  0  0
   -3.0735   -1.7760    0.7945 H   0  0  0  0  0  0  0  0  0  0  0  0
   -4.0470    0.2141   -0.4452 H   0  0  0  0  0  0  0  0  0  0  0  0
   -3.5504    1.1866    0.9697 H   0  0  0  0  0  0  0  0  0  0  0  0
   -3.8823    2.3835   -0.9523 H   0  0  0  0  0  0  0  0  0  0  0  0
   -0.6334    1.5394   -0.4484 H   0  0  0  0  0  0  0  0  0  0  0  0
    1.6191    1.3074   -0.5491 H   0  0  0  0  0  0  0  0  0  0  0  0
    4.2634    1.4131    0.3220 H   0  0  0  0  0  0  0  0  0  0  0  0
    4.9108    0.2162   -0.8334 H   0  0  0  0  0  0  0  0  0  0  0  0
    3.6965    1.3853   -1.3734 H   0  0  0  0  0  0  0  0  0  0  0  0
  1  2  2  0
  2  3  1  0
  3  4  2  0
  4  5  1  0
  5  6  1  0
  4  7  1  0
  7  8  2  0
  8  9  1  0
  9 10  1  0
 10 11  2  0
 10 12  1  0
  8  1  1  0
  1 13  1  0
  2 14  1  0
  3 15  1  0
  5 16  1  0
  5 17  1  0
  6 18  1  0
  7 19  1  0
  9 20  1  0
 12 21  1  0
 12 22  1  0
 12 23  1  0
M  END
>  <ofe-name>  (104) 
lig_0103

$$$$
lig_0104
     RDKit          3D

 26 27  0  0  0  0  0  0  0  0999 V2000
   -0.1937   -1.0646    1.5143 C   0  0  0  0  0  0  0  0  0  0  0  0
   -1.4866   -1.3631    1.9495 C   0  0  0  0  0  0  0  0  0  0  0  0
   -2.5882   -0.9299    1.2148 C   0  0  0  0  0  0  0  0  0  0  0  0
   -2.4063   -0.2027    0.0334 C   0  0  0  0  0  0  0  0  0  0  0  0
   -3.5937    0.2983   -0.7432 C   0  0  0  0  0  0  0  0  0  0  0  0
   -4.0129    1.5656   -0.2560 O   0  0  0  0  0  0  0  0  0  0  0  0
   -1.1015    0.1014   -0.3876 C   0  0  0  0  0  0  0  0  0  0  0  0
    0.0228   -0.3260    0.3402 C   0  0  0  0  0  0  0  0  0  0  0  0
    1.3863   -0.0054   -0.1138 C   0  0  0  0  0  0  0  0  0  0  0  0
    2.3024    0.6326    0.7393 C   0  0  0  0  0  0  0  0  0  0  0  0
    3.5962    0.9387    0.3085 C   0  0  0  0  0  0  0  0  0  0  0  0
    3.9967    0.6102   -0.9840 C   0  0  0  0  0  0  0  0  0  0  0  0
    3.1050   -0.0233   -1.8456 C   0  0  0  0  0  0  0  0  0  0  0  0
    1.8111   -0.3276   -1.4136 C   0  0  0  0  0  0  0  0  0  0  0  0
    0.6528   -1.4224    2.0974 H   0  0  0  0  0  0  0  0  0  0  0  0
   -1.6322   -1.9347    2.8627 H   0  0  0  0  0  0  0  0  0  0  0  0
   -3.5910   -1.1611    1.5688 H   0  0  0  0  0  0  0  0  0  0  0  0
   -4.4327   -0.4012   -0.6657 H   0  0  0  0  0  0  0  0  0  0  0  0
   -3.3502    0.3971   -1.8063 H   0  0  0  0  0  0  0  0  0  0  0  0
   -3.3731    1.8514    0.4188 H   0  0  0  0  0  0  0  0  0  0  0  0
   -0.9590    0.6929   -1.2915 H   0  0  0  0  0  0  0  0  0  0  0  0
    2.0068    0.9083    1.7496 H   0  0  0  0  0  0  0  0  0  0  0  0
    4.2886    1.4358    0.9829 H   0  0  0  0  0  0  0  0  0  0  0  0
    5.0028    0.8475   -1.3194 H   0  0  0  0  0  0  0  0  0  0  0  0
    3.4151   -0.2842   -2.8541 H   0  0  0  0  0  0  0  0  0  0  0  0
    1.1344   -0.8333   -2.0995 H   0  0  0  0  0  0  0  0  0  0  0  0
  1  2  2  0
  2  3  1  0
  3  4  2  0
  4  5  1  0
  5  6  1  0
  4  7  1  0
  7  8  2  0
  8  9  1  0
  9 10  2  0
 10 11  1  0
 11 12  2  0
 12 13  1  0
 13 14  2  0
  8  1  1  0
 14  9  1  0
  1 15  1  0
  2 16  1  0
  3 17  1  0
  5 18  1  0
  5 19  1  0
  6 20  1  0
  7 21  1  0
 10 22  1  0
 11 23  1  0
 12 24  1  0
 13 25  1  0
 14 26  1  0
M  END
>  <ofe-name>  (105) 
lig_0104

$$$$
lig_0105
     RDKit          3D

 16 16  0  0  0  0  0  0  0  0999 V2000
   -1.2408    1.0161    0.3664 C   0  0  0  0  0  0  0  0  0  0  0  0
   -0.0926    1.7971    0.2312 C   0  0  0  0  0  0  0  0  0  0  0  0
    1.1267    1.1959   -0.0818 C   0  0  0  0  0  0  0  0  0  0  0  0
    1.2210   -0.1915   -0.1992 C   0  0  0  0  0  0  0  0  0  0  0  0
    2.4268   -0.7857   -0.5966 N   0  0  0  0  0  0  0  0  0  0  0  0
    0.0492   -0.9538   -0.1227 C   0  0  0  0  0  0  0  0  0  0  0  0
   -1.1927   -0.3581    0.1285 C   0  0  0  0  0  0  0  0  0  0  0  0
   -2.3269   -1.1522    0.3473 N   0  0  0  0  0  0  0  0  0  0  0  0
   -2.1778    1.4938    0.6382 H   0  0  0  0  0  0  0  0  0  0  0  0
   -0.1481    2.8732    0.3696 H   0  0  0  0  0  0  0  0  0  0  0  0
    2.0070    1.8189   -0.2121 H   0  0  0  0  0  0  0  0  0  0  0  0
    3.2490   -0.2591   -0.3188 H   0  0  0  0  0  0  0  0  0  0  0  0
    2.4963   -1.7667   -0.3449 H   0  0  0  0  0  0  0  0  0  0  0  0
    0.1046   -2.0297   -0.2611 H   0  0  0  0  0  0  0  0  0  0  0  0
   -3.2017   -0.6585    0.2008 H   0  0  0  0  0  0  0  0  0  0  0  0
   -2.3000   -2.0397   -0.1448 H   0  0  0  0  0  0  0  0  0  0  0  0
  1  2  2  0
  2  3  1  0
  3  4  2  0
  4  5  1  0
  4  6  1  0
  6  7  2  0
  7  8  1  0
  7  1  1  0
  1  9  1  0
  2 10  1  0
  3 11  1  0
  5 12  1  0
  5 13  1  0
  6 14  1  0
  8 15  1  0
  8 16  1  0
M  END
>  <ofe-name>  (106) 
lig_0105

$$$$
lig_0106
     RDKit          3D

 19 19  0  0  0  0  0  0  0  0999 V2000
    0.3609    1.3623    0.6177 C   0  0  0  0  0  0  0  0  0  0  0  0
   -0.8638    1.3761    1.2828 C   0  0  0  0  0  0  0  0  0  0  0  0
   -1.8244    0.4034    0.9991 C   0  0  0  0  0  0  0  0  0  0  0  0
   -1.5574   -0.6174    0.0847 C   0  0  0  0  0  0  0  0  0  0  0  0
   -2.5637   -1.5203   -0.2781 N   0  0  0  0  0  0  0  0  0  0  0  0
   -0.3507   -0.5872   -0.6208 C   0  0  0  0  0  0  0  0  0  0  0  0
    0.6230    0.3903   -0.3555 C   0  0  0  0  0  0  0  0  0  0  0  0
    1.9395    0.3737   -1.0868 C   0  0  0  0  0  0  0  0  0  0  0  0
    2.9252   -0.4366   -0.3807 N   0  0  0  0  0  0  0  0  0  0  0  0
    1.1013    2.1257    0.8460 H   0  0  0  0  0  0  0  0  0  0  0  0
   -1.0777    2.1516    2.0133 H   0  0  0  0  0  0  0  0  0  0  0  0
   -2.7861    0.4486    1.5029 H   0  0  0  0  0  0  0  0  0  0  0  0
   -3.2488   -1.6852    0.4525 H   0  0  0  0  0  0  0  0  0  0  0  0
   -2.2155   -2.3833   -0.6831 H   0  0  0  0  0  0  0  0  0  0  0  0
   -0.1611   -1.3328   -1.3896 H   0  0  0  0  0  0  0  0  0  0  0  0
    1.8024   -0.0170   -2.1017 H   0  0  0  0  0  0  0  0  0  0  0  0
    2.3193    1.3955   -1.2016 H   0  0  0  0  0  0  0  0  0  0  0  0
    2.5494   -1.3770   -0.2659 H   0  0  0  0  0  0  0  0  0  0  0  0
    3.0284   -0.0704    0.5649 H   0  0  0  0  0  0  0  0  0  0  0  0
  1  2  1  0
  2  3  2  0
  3  4  1  0
  4  5  1  0
  4  6  2  0
  6  7  1  0
  7  8  1  0
  8  9  1  0
  7  1  2  0
  1 10  1  0
  2 11  1  0
  3 12  1  0
  5 13  1  0
  5 14  1  0
  6 15  1  0
  8 16  1  0
  8 17  1  0
  9 18  1  0
  9 19  1  0
M  END
>  <ofe-name>  (107) 
lig_0106

$$$$
lig_0107
     RDKit          3D

 14 14  0  0  0  0  0  0  0  0999 V2000
   -1.8668    0.1974   -0.0099 C   0  0  0  0  0  0  0  0  0  0  0  0
   -1.0605    1.3079    0.2233 C   0  0  0  0  0  0  0  0  0  0  0  0
    0.3307    1.1645    0.2473 C   0  0  0  0  0  0  0  0  0  0  0  0
    0.9305   -0.0757   -0.0013 C   0  0  0  0  0  0  0  0  0  0  0  0
    2.3142   -0.2295    0.1437 N   0  0  0  0  0  0  0  0  0  0  0  0
    0.1109   -1.1921   -0.1744 C   0  0  0  0  0  0  0  0  0  0  0  0
   -1.2732   -1.0444   -0.1975 C   0  0  0  0  0  0  0  0  0  0  0  0
   -2.0470   -2.1208   -0.3923 F   0  0  0  0  0  0  0  0  0  0  0  0
   -2.9479    0.2864   -0.0270 H   0  0  0  0  0  0  0  0  0  0  0  0
   -1.5098    2.2814    0.4007 H   0  0  0  0  0  0  0  0  0  0  0  0
    0.9461    2.0344    0.4632 H   0  0  0  0  0  0  0  0  0  0  0  0
    2.6931   -1.0399   -0.3368 H   0  0  0  0  0  0  0  0  0  0  0  0
    2.8462    0.6143   -0.0455 H   0  0  0  0  0  0  0  0  0  0  0  0
    0.5335   -2.1839   -0.2936 H   0  0  0  0  0  0  0  0  0  0  0  0
  1  2  2  0
  2  3  1  0
  3  4  2  0
  4  5  1  0
  4  6  1  0
  6  7  2  0
  7  8  1  0
  7  1  1  0
  1  9  1  0
  2 10  1  0
  3 11  1  0
  5 12  1  0
  5 13  1  0
  6 14  1  0
M  END
>  <ofe-name>  (108) 
lig_0107

$$$$
lig_0108
     RDKit          3D

 14 14  0  0  0  0  0  0  0  0999 V2000
   -1.8310    0.2777   -0.2172 C   0  0  0  0  0  0  0  0  0  0  0  0
   -0.9620    1.3541   -0.3814 C   0  0  0  0  0  0  0  0  0  0  0  0
    0.4129    1.1725   -0.2085 C   0  0  0  0  0  0  0  0  0  0  0  0
    0.9380   -0.0894    0.0881 C   0  0  0  0  0  0  0  0  0  0  0  0
    2.3003   -0.2338    0.3756 N   0  0  0  0  0  0  0  0  0  0  0  0
    0.0544   -1.1487    0.3097 C   0  0  0  0  0  0  0  0  0  0  0  0
   -1.3189   -0.9679    0.1373 C   0  0  0  0  0  0  0  0  0  0  0  0
   -2.3916   -2.2930    0.3781 Cl  0  0  0  0  0  0  0  0  0  0  0  0
   -2.9003    0.4192   -0.3470 H   0  0  0  0  0  0  0  0  0  0  0  0
   -1.3529    2.3374   -0.6298 H   0  0  0  0  0  0  0  0  0  0  0  0
    1.0744    2.0295   -0.3081 H   0  0  0  0  0  0  0  0  0  0  0  0
    2.8957    0.4443   -0.0898 H   0  0  0  0  0  0  0  0  0  0  0  0
    2.6471   -1.1830    0.2759 H   0  0  0  0  0  0  0  0  0  0  0  0
    0.4339   -2.1188    0.6169 H   0  0  0  0  0  0  0  0  0  0  0  0
  1  2  2  0
  2  3  1  0
  3  4  2  0
  4  5  1  0
  4  6  1  0
  6  7  2  0
  7  8  1  0
  7  1  1  0
  1  9  1  0
  2 10  1  0
  3 11  1  0
  5 12  1  0
  5 13  1  0
  6 14  1  0
M  END
>  <ofe-name>  (109) 
lig_0108

$$$$
lig_0109
     RDKit          3D

 14 14  0  0  0  0  0  0  0  0999 V2000
   -1.8470   -0.0464   -0.2108 C   0  0  0  0  0  0  0  0  0  0  0  0
   -1.1241   -1.2232   -0.3932 C   0  0  0  0  0  0  0  0  0  0  0  0
    0.2636   -1.2230   -0.2266 C   0  0  0  0  0  0  0  0  0  0  0  0
    0.9482   -0.0433    0.0817 C   0  0  0  0  0  0  0  0  0  0  0  0
    2.3195   -0.0792    0.3620 N   0  0  0  0  0  0  0  0  0  0  0  0
    0.2099    1.1183    0.3219 C   0  0  0  0  0  0  0  0  0  0  0  0
   -1.1764    1.1179    0.1556 C   0  0  0  0  0  0  0  0  0  0  0  0
   -2.1558    2.7096    0.4466 Br  0  0  0  0  0  0  0  0  0  0  0  0
   -2.9261   -0.0515   -0.3367 H   0  0  0  0  0  0  0  0  0  0  0  0
   -1.6393   -2.1448   -0.6510 H   0  0  0  0  0  0  0  0  0  0  0  0
    0.8083   -2.1568   -0.3408 H   0  0  0  0  0  0  0  0  0  0  0  0
    2.7839    0.8190    0.2693 H   0  0  0  0  0  0  0  0  0  0  0  0
    2.8190   -0.8221   -0.1168 H   0  0  0  0  0  0  0  0  0  0  0  0
    0.7163    2.0254    0.6387 H   0  0  0  0  0  0  0  0  0  0  0  0
  1  2  2  0
  2  3  1  0
  3  4  2  0
  4  5  1  0
  4  6  1  0
  6  7  2  0
  7  8  1  0
  7  1  1  0
  1  9  1  0
  2 10  1  0
  3 11  1  0
  5 12  1  0
  5 13  1  0
  6 14  1  0
M  END
>  <ofe-name>  (110) 
lig_0109

$$$$
lig_0110
     RDKit          3D

 17 17  0  0  0  0  0  0  0  0999 V2000
   -0.9326   -1.1929    0.0081 C   0  0  0  0  0  0  0  0  0  0  0  0
    0.2700   -1.8869   -0.1170 C   0  0  0  0  0  0  0  0  0  0  0  0
    1.4776   -1.1868   -0.1743 C   0  0  0  0  0  0  0  0  0  0  0  0
    1.5045    0.2064   -0.0661 C   0  0  0  0  0  0  0  0  0  0  0  0
    2.7048    0.9029   -0.2455 N   0  0  0  0  0  0  0  0  0  0  0  0
    0.2924    0.8980   -0.0007 C   0  0  0  0  0  0  0  0  0  0  0  0
   -0.9251    0.2051    0.0573 C   0  0  0  0  0  0  0  0  0  0  0  0
   -2.1750    0.9950    0.1598 C   0  0  0  0  0  0  0  0  0  0  0  0
   -2.2507    2.2081    0.2245 O   0  0  0  0  0  0  0  0  0  0  0  0
   -3.2792    0.2270    0.1796 O   0  0  0  0  0  0  0  0  0  0  0  0
   -1.8668   -1.7473    0.0477 H   0  0  0  0  0  0  0  0  0  0  0  0
    0.2681   -2.9719   -0.1843 H   0  0  0  0  0  0  0  0  0  0  0  0
    2.4031   -1.7421   -0.3050 H   0  0  0  0  0  0  0  0  0  0  0  0
    3.5318    0.3810    0.0271 H   0  0  0  0  0  0  0  0  0  0  0  0
    2.6991    1.8438    0.1371 H   0  0  0  0  0  0  0  0  0  0  0  0
    0.2899    1.9859    0.0066 H   0  0  0  0  0  0  0  0  0  0  0  0
   -4.0118    0.8747    0.2450 H   0  0  0  0  0  0  0  0  0  0  0  0
  1  2  2  0
  2  3  1  0
  3  4  2  0
  4  5  1  0
  4  6  1  0
  6  7  2  0
  7  8  1  0
  8  9  2  0
  8 10  1  0
  7  1  1  0
  1 11  1  0
  2 12  1  0
  3 13  1  0
  5 14  1  0
  5 15  1  0
  6 16  1  0
 10 17  1  0
M  END
>  <ofe-name>  (111) 
lig_0110

$$$$
lig_0111
     RDKit          3D

 18 18  0  0  0  0  0  0  0  0999 V2000
   -0.0264    1.6665   -0.2494 C   0  0  0  0  0  0  0  0  0  0  0  0
   -1.4179    1.5982   -0.2328 C   0  0  0  0  0  0  0  0  0  0  0  0
   -2.0520    0.3810    0.0252 C   0  0  0  0  0  0  0  0  0  0  0  0
   -1.3083   -0.7653    0.3204 C   0  0  0  0  0  0  0  0  0  0  0  0
   -1.9507   -1.9999    0.4758 N   0  0  0  0  0  0  0  0  0  0  0  0
    0.0861   -0.7039    0.2408 C   0  0  0  0  0  0  0  0  0  0  0  0
    0.7308    0.5101   -0.0356 C   0  0  0  0  0  0  0  0  0  0  0  0
    2.2115    0.6152   -0.1032 C   0  0  0  0  0  0  0  0  0  0  0  0
    2.7912    1.6789    0.0738 O   0  0  0  0  0  0  0  0  0  0  0  0
    2.9094   -0.5193   -0.4151 N   0  0  0  0  0  0  0  0  0  0  0  0
    0.4669    2.6152   -0.4514 H   0  0  0  0  0  0  0  0  0  0  0  0
   -2.0086    2.4888   -0.4316 H   0  0  0  0  0  0  0  0  0  0  0  0
   -3.1381    0.3384    0.0043 H   0  0  0  0  0  0  0  0  0  0  0  0
   -1.4136   -2.6834    1.0005 H   0  0  0  0  0  0  0  0  0  0  0  0
   -2.9049   -1.9243    0.8163 H   0  0  0  0  0  0  0  0  0  0  0  0
    0.6655   -1.6037    0.4213 H   0  0  0  0  0  0  0  0  0  0  0  0
    2.4624   -1.3062   -0.8640 H   0  0  0  0  0  0  0  0  0  0  0  0
    3.8966   -0.3863   -0.5954 H   0  0  0  0  0  0  0  0  0  0  0  0
  1  2  2  0
  2  3  1  0
  3  4  2  0
  4  5  1  0
  4  6  1  0
  6  7  2  0
  7  8  1  0
  8  9  2  0
  8 10  1  0
  7  1  1  0
  1 11  1  0
  2 12  1  0
  3 13  1  0
  5 14  1  0
  5 15  1  0
  6 16  1  0
 10 17  1  0
 10 18  1  0
M  END
>  <ofe-name>  (112) 
lig_0111

$$$$
lig_0112
     RDKit          3D

 15 15  0  0  0  0  0  0  0  0999 V2000
   -1.4925    1.0064    0.0794 C   0  0  0  0  0  0  0  0  0  0  0  0
   -0.3544    1.7935   -0.0899 C   0  0  0  0  0  0  0  0  0  0  0  0
    0.9066    1.1960   -0.1345 C   0  0  0  0  0  0  0  0  0  0  0  0
    1.0417   -0.1919   -0.0504 C   0  0  0  0  0  0  0  0  0  0  0  0
    2.3144   -0.7707    0.0267 N   0  0  0  0  0  0  0  0  0  0  0  0
   -0.1005   -0.9658    0.1800 C   0  0  0  0  0  0  0  0  0  0  0  0
   -1.3702   -0.3771    0.2194 C   0  0  0  0  0  0  0  0  0  0  0  0
   -2.8271   -1.3658    0.4855 S   0  0  0  0  0  0  0  0  0  0  0  0
   -2.4693    1.4823    0.1199 H   0  0  0  0  0  0  0  0  0  0  0  0
   -0.4473    2.8732   -0.1716 H   0  0  0  0  0  0  0  0  0  0  0  0
    1.7861    1.8267   -0.2338 H   0  0  0  0  0  0  0  0  0  0  0  0
    2.3391   -1.7537   -0.2251 H   0  0  0  0  0  0  0  0  0  0  0  0
    3.0395   -0.2347   -0.4400 H   0  0  0  0  0  0  0  0  0  0  0  0
    0.0048   -2.0362    0.3339 H   0  0  0  0  0  0  0  0  0  0  0  0
   -2.3710   -2.4824   -0.0996 H   0  0  0  0  0  0  0  0  0  0  0  0
  1  2  2  0
  2  3  1  0
  3  4  2  0
  4  5  1  0
  4  6  1  0
  6  7  2  0
  7  8  1  0
  7  1  1  0
  1  9  1  0
  2 10  1  0
  3 11  1  0
  5 12  1  0
  5 13  1  0
  6 14  1  0
  8 15  1  0
M  END
>  <ofe-name>  (113) 
lig_0112

$$$$
lig_0113
     RDKit          3D

 18 18  0  0  0  0  0  0  0  0999 V2000
    0.2955   -1.5088   -0.1679 C   0  0  0  0  0  0  0  0  0  0  0  0
   -1.0687   -1.7613   -0.0341 C   0  0  0  0  0  0  0  0  0  0  0  0
   -1.9703   -0.6998    0.0620 C   0  0  0  0  0  0  0  0  0  0  0  0
   -1.5172    0.6206    0.0745 C   0  0  0  0  0  0  0  0  0  0  0  0
   -2.4323    1.6812    0.0614 N   0  0  0  0  0  0  0  0  0  0  0  0
   -0.1546    0.8647   -0.1225 C   0  0  0  0  0  0  0  0  0  0  0  0
    0.7661   -0.1912   -0.2328 C   0  0  0  0  0  0  0  0  0  0  0  0
    2.2337    0.0912   -0.4080 C   0  0  0  0  0  0  0  0  0  0  0  0
    3.0908    0.2527    1.1812 S   0  0  0  0  0  0  0  0  0  0  0  0
    0.9874   -2.3453   -0.2361 H   0  0  0  0  0  0  0  0  0  0  0  0
   -1.4330   -2.7848   -0.0136 H   0  0  0  0  0  0  0  0  0  0  0  0
   -3.0328   -0.9145    0.1354 H   0  0  0  0  0  0  0  0  0  0  0  0
   -2.0406    2.5567    0.3945 H   0  0  0  0  0  0  0  0  0  0  0  0
   -3.3133    1.4602    0.5147 H   0  0  0  0  0  0  0  0  0  0  0  0
    0.2000    1.8909   -0.1851 H   0  0  0  0  0  0  0  0  0  0  0  0
    2.3752    1.0134   -0.9825 H   0  0  0  0  0  0  0  0  0  0  0  0
    2.7071   -0.7110   -0.9850 H   0  0  0  0  0  0  0  0  0  0  0  0
    4.3071    0.4853    0.6691 H   0  0  0  0  0  0  0  0  0  0  0  0
  1  2  1  0
  2  3  2  0
  3  4  1  0
  4  5  1  0
  4  6  2  0
  6  7  1  0
  7  8  1  0
  8  9  1  0
  7  1  2  0
  1 10  1  0
  2 11  1  0
  3 12  1  0
  5 13  1  0
  5 14  1  0
  6 15  1  0
  8 16  1  0
  8 17  1  0
  9 18  1  0
M  END
>  <ofe-name>  (114) 
lig_0113

$$$$
lig_0114
     RDKit          3D

 26 26  0  0  0  0  0  0  0  0999 V2000
    0.2885    1.1815   -1.1052 C   0  0  0  0  0  0  0  0  0  0  0  0
    1.5842    1.5141   -1.5027 C   0  0  0  0  0  0  0  0  0  0  0  0
    2.6739    0.8272   -0.9741 C   0  0  0  0  0  0  0  0  0  0  0  0
    2.4775   -0.2228   -0.0795 C   0  0  0  0  0  0  0  0  0  0  0  0
    3.5762   -0.8353    0.5386 N   0  0  0  0  0  0  0  0  0  0  0  0
    1.1756   -0.5049    0.3585 C   0  0  0  0  0  0  0  0  0  0  0  0
    0.0518    0.1696   -0.1564 C   0  0  0  0  0  0  0  0  0  0  0  0
   -1.3861   -0.1496    0.2892 C   0  0  0  0  0  0  0  0  0  0  0  0
   -2.2261   -0.5768   -0.9342 C   0  0  0  0  0  0  0  0  0  0  0  0
   -2.0212    1.1042    0.9283 C   0  0  0  0  0  0  0  0  0  0  0  0
   -1.4820   -1.2904    1.3275 C   0  0  0  0  0  0  0  0  0  0  0  0
   -0.5382    1.7422   -1.5356 H   0  0  0  0  0  0  0  0  0  0  0  0
    1.7438    2.3192   -2.2147 H   0  0  0  0  0  0  0  0  0  0  0  0
    3.6780    1.1183   -1.2683 H   0  0  0  0  0  0  0  0  0  0  0  0
    3.3732   -1.7595    0.9055 H   0  0  0  0  0  0  0  0  0  0  0  0
    4.4193   -0.8218   -0.0264 H   0  0  0  0  0  0  0  0  0  0  0  0
    1.0574   -1.2716    1.1181 H   0  0  0  0  0  0  0  0  0  0  0  0
   -3.2473   -0.8446   -0.6385 H   0  0  0  0  0  0  0  0  0  0  0  0
   -2.3084    0.2211   -1.6802 H   0  0  0  0  0  0  0  0  0  0  0  0
   -1.7835   -1.4481   -1.4315 H   0  0  0  0  0  0  0  0  0  0  0  0
   -2.0963    1.9372    0.2207 H   0  0  0  0  0  0  0  0  0  0  0  0
   -3.0363    0.8947    1.2855 H   0  0  0  0  0  0  0  0  0  0  0  0
   -1.4314    1.4522    1.7846 H   0  0  0  0  0  0  0  0  0  0  0  0
   -0.9445   -1.0429    2.2503 H   0  0  0  0  0  0  0  0  0  0  0  0
   -1.0734   -2.2287    0.9347 H   0  0  0  0  0  0  0  0  0  0  0  0
   -2.5248   -1.4845    1.6059 H   0  0  0  0  0  0  0  0  0  0  0  0
  1  2  1  0
  2  3  2  0
  3  4  1  0
  4  5  1  0
  4  6  2  0
  6  7  1  0
  7  8  1  0
  8  9  1  0
  8 10  1  0
  8 11  1  0
  7  1  2  0
  1 12  1  0
  2 13  1  0
  3 14  1  0
  5 15  1  0
  5 16  1  0
  6 17  1  0
  9 18  1  0
  9 19  1  0
  9 20  1  0
 10 21  1  0
 10 22  1  0
 10 23  1  0
 11 24  1  0
 11 25  1  0
 11 26  1  0
M  END
>  <ofe-name>  (115) 
lig_0114

$$$$
lig_0115
     RDKit          3D

 18 18  0  0  0  0  0  0  0  0999 V2000
   -0.8320   -0.9443    0.0858 C   0  0  0  0  0  0  0  0  0  0  0  0
    0.2563   -1.8083   -0.0513 C   0  0  0  0  0  0  0  0  0  0  0  0
    1.5574   -1.3025   -0.0698 C   0  0  0  0  0  0  0  0  0  0  0  0
    1.7854    0.0720    0.0058 C   0  0  0  0  0  0  0  0  0  0  0  0
    3.0922    0.5660    0.1049 N   0  0  0  0  0  0  0  0  0  0  0  0
    0.6921    0.9204    0.2040 C   0  0  0  0  0  0  0  0  0  0  0  0
   -0.6175    0.4261    0.2248 C   0  0  0  0  0  0  0  0  0  0  0  0
   -1.5857    1.3787    0.3928 O   0  0  0  0  0  0  0  0  0  0  0  0
   -2.9316    0.9237    0.4491 C   0  0  0  0  0  0  0  0  0  0  0  0
   -1.8276   -1.3739    0.0979 H   0  0  0  0  0  0  0  0  0  0  0  0
    0.0921   -2.8797   -0.1307 H   0  0  0  0  0  0  0  0  0  0  0  0
    2.3930   -1.9930   -0.1447 H   0  0  0  0  0  0  0  0  0  0  0  0
    3.1764    1.5457   -0.1485 H   0  0  0  0  0  0  0  0  0  0  0  0
    3.7854   -0.0135   -0.3572 H   0  0  0  0  0  0  0  0  0  0  0  0
    0.8509    1.9865    0.3432 H   0  0  0  0  0  0  0  0  0  0  0  0
   -3.5740    1.7976    0.5945 H   0  0  0  0  0  0  0  0  0  0  0  0
   -3.0865    0.2517    1.2996 H   0  0  0  0  0  0  0  0  0  0  0  0
   -3.2265    0.4469   -0.4915 H   0  0  0  0  0  0  0  0  0  0  0  0
  1  2  2  0
  2  3  1  0
  3  4  2  0
  4  5  1  0
  4  6  1  0
  6  7  2  0
  7  8  1  0
  8  9  1  0
  7  1  1  0
  1 10  1  0
  2 11  1  0
  3 12  1  0
  5 13  1  0
  5 14  1  0
  6 15  1  0
  9 16  1  0
  9 17  1  0
  9 18  1  0
M  END
>  <ofe-name>  (116) 
lig_0115

$$$$
lig_0116
     RDKit          3D

 21 21  0  0  0  0  0  0  0  0999 V2000
    0.2759   -1.0270    0.2259 C   0  0  0  0  0  0  0  0  0  0  0  0
   -0.8103   -1.7287    0.7536 C   0  0  0  0  0  0  0  0  0  0  0  0
   -2.1091   -1.2463    0.5841 C   0  0  0  0  0  0  0  0  0  0  0  0
   -2.3421   -0.0810   -0.1463 C   0  0  0  0  0  0  0  0  0  0  0  0
   -3.6303    0.4645   -0.2128 N   0  0  0  0  0  0  0  0  0  0  0  0
   -1.2425    0.6433   -0.6160 C   0  0  0  0  0  0  0  0  0  0  0  0
    0.0656    0.1685   -0.4580 C   0  0  0  0  0  0  0  0  0  0  0  0
    1.0286    0.9747   -0.9985 O   0  0  0  0  0  0  0  0  0  0  0  0
    2.3845    0.5323   -0.9893 C   0  0  0  0  0  0  0  0  0  0  0  0
    3.0850    0.9635    0.2875 C   0  0  0  0  0  0  0  0  0  0  0  0
    1.2687   -1.4295    0.3914 H   0  0  0  0  0  0  0  0  0  0  0  0
   -0.6436   -2.6458    1.3125 H   0  0  0  0  0  0  0  0  0  0  0  0
   -2.9382   -1.7888    1.0299 H   0  0  0  0  0  0  0  0  0  0  0  0
   -3.7593    1.1089   -0.9868 H   0  0  0  0  0  0  0  0  0  0  0  0
   -4.3714   -0.2267   -0.1578 H   0  0  0  0  0  0  0  0  0  0  0  0
   -1.3956    1.5944   -1.1194 H   0  0  0  0  0  0  0  0  0  0  0  0
    2.4783   -0.5430   -1.1764 H   0  0  0  0  0  0  0  0  0  0  0  0
    2.8760    1.0265   -1.8352 H   0  0  0  0  0  0  0  0  0  0  0  0
    2.6287    0.5050    1.1697 H   0  0  0  0  0  0  0  0  0  0  0  0
    4.1429    0.6874    0.2598 H   0  0  0  0  0  0  0  0  0  0  0  0
    3.0080    2.0480    0.4188 H   0  0  0  0  0  0  0  0  0  0  0  0
  1  2  2  0
  2  3  1  0
  3  4  2  0
  4  5  1  0
  4  6  1  0
  6  7  2  0
  7  8  1  0
  8  9  1  0
  9 10  1  0
  7  1  1  0
  1 11  1  0
  2 12  1  0
  3 13  1  0
  5 14  1  0
  5 15  1  0
  6 16  1  0
  9 17  1  0
  9 18  1  0
 10 19  1  0
 10 20  1  0
 10 21  1  0
M  END
>  <ofe-name>  (117) 
lig_0116

$$$$
lig_0117
     RDKit          3D

 21 21  0  0  0  0  0  0  0  0999 V2000
   -0.3661    1.5265   -0.8606 C   0  0  0  0  0  0  0  0  0  0  0  0
   -1.7215    1.8532   -0.8099 C   0  0  0  0  0  0  0  0  0  0  0  0
   -2.6144    1.0160   -0.1428 C   0  0  0  0  0  0  0  0  0  0  0  0
   -2.1696   -0.1694    0.4443 C   0  0  0  0  0  0  0  0  0  0  0  0
   -3.0476   -0.9423    1.2166 N   0  0  0  0  0  0  0  0  0  0  0  0
   -0.7979   -0.4563    0.4378 C   0  0  0  0  0  0  0  0  0  0  0  0
    0.1100    0.3702   -0.2314 C   0  0  0  0  0  0  0  0  0  0  0  0
    1.4974    0.1228   -0.3075 N   0  0  0  0  0  0  0  0  0  0  0  0
    2.1897   -0.9635    0.1970 C   0  0  0  0  0  0  0  0  0  0  0  0
    1.7262   -1.9210    0.8055 O   0  0  0  0  0  0  0  0  0  0  0  0
    3.6721   -0.8593   -0.0630 C   0  0  0  0  0  0  0  0  0  0  0  0
    0.3097    2.1962   -1.3853 H   0  0  0  0  0  0  0  0  0  0  0  0
   -2.0808    2.7656   -1.2781 H   0  0  0  0  0  0  0  0  0  0  0  0
   -3.6622    1.2972   -0.0821 H   0  0  0  0  0  0  0  0  0  0  0  0
   -4.0142   -0.8960    0.9122 H   0  0  0  0  0  0  0  0  0  0  0  0
   -2.7295   -1.8977    1.3541 H   0  0  0  0  0  0  0  0  0  0  0  0
   -0.4581   -1.3393    0.9685 H   0  0  0  0  0  0  0  0  0  0  0  0
    2.0423    0.8192   -0.7994 H   0  0  0  0  0  0  0  0  0  0  0  0
    3.8625   -0.5127   -1.0828 H   0  0  0  0  0  0  0  0  0  0  0  0
    4.1190   -0.1650    0.6535 H   0  0  0  0  0  0  0  0  0  0  0  0
    4.1330   -1.8445    0.0533 H   0  0  0  0  0  0  0  0  0  0  0  0
  1  2  1  0
  2  3  2  0
  3  4  1  0
  4  5  1  0
  4  6  2  0
  6  7  1  0
  7  8  1  0
  8  9  1  0
  9 10  2  0
  9 11  1  0
  7  1  2  0
  1 12  1  0
  2 13  1  0
  3 14  1  0
  5 15  1  0
  5 16  1  0
  6 17  1  0
  8 18  1  0
 11 19  1  0
 11 20  1  0
 11 21  1  0
M  END
>  <ofe-name>  (118) 
lig_0117

$$$$
lig_0118
     RDKit          3D

 24 25  0  0  0  0  0  0  0  0999 V2000
    0.6191   -1.6792   -0.4966 C   0  0  0  0  0  0  0  0  0  0  0  0
    1.9326   -2.0659   -0.7644 C   0  0  0  0  0  0  0  0  0  0  0  0
    2.9649   -1.1313   -0.6849 C   0  0  0  0  0  0  0  0  0  0  0  0
    2.7039    0.1832   -0.2969 C   0  0  0  0  0  0  0  0  0  0  0  0
    3.7233    1.1436   -0.3290 N   0  0  0  0  0  0  0  0  0  0  0  0
    1.3752    0.5723   -0.0919 C   0  0  0  0  0  0  0  0  0  0  0  0
    0.3149   -0.3500   -0.1663 C   0  0  0  0  0  0  0  0  0  0  0  0
   -1.0741    0.0703    0.0817 C   0  0  0  0  0  0  0  0  0  0  0  0
   -1.8694   -0.5856    1.0362 C   0  0  0  0  0  0  0  0  0  0  0  0
   -3.1880   -0.1869    1.2725 C   0  0  0  0  0  0  0  0  0  0  0  0
   -3.7343    0.8750    0.5562 C   0  0  0  0  0  0  0  0  0  0  0  0
   -2.9636    1.5383   -0.3952 C   0  0  0  0  0  0  0  0  0  0  0  0
   -1.6450    1.1390   -0.6295 C   0  0  0  0  0  0  0  0  0  0  0  0
   -0.1756   -2.4179   -0.5791 H   0  0  0  0  0  0  0  0  0  0  0  0
    2.1492   -3.0912   -1.0517 H   0  0  0  0  0  0  0  0  0  0  0  0
    3.9778   -1.4400   -0.9281 H   0  0  0  0  0  0  0  0  0  0  0  0
    3.5354    1.9562    0.2500 H   0  0  0  0  0  0  0  0  0  0  0  0
    4.6493    0.7610   -0.1662 H   0  0  0  0  0  0  0  0  0  0  0  0
    1.1585    1.6118    0.1442 H   0  0  0  0  0  0  0  0  0  0  0  0
   -1.4583   -1.4107    1.6143 H   0  0  0  0  0  0  0  0  0  0  0  0
   -3.7855   -0.7053    2.0177 H   0  0  0  0  0  0  0  0  0  0  0  0
   -4.7597    1.1851    0.7389 H   0  0  0  0  0  0  0  0  0  0  0  0
   -3.3873    2.3652   -0.9590 H   0  0  0  0  0  0  0  0  0  0  0  0
   -1.0634    1.6629   -1.3857 H   0  0  0  0  0  0  0  0  0  0  0  0
  1  2  2  0
  2  3  1  0
  3  4  2  0
  4  5  1  0
  4  6  1  0
  6  7  2  0
  7  8  1  0
  8  9  2  0
  9 10  1  0
 10 11  2  0
 11 12  1  0
 12 13  2  0
  7  1  1  0
 13  8  1  0
  1 14  1  0
  2 15  1  0
  3 16  1  0
  5 17  1  0
  5 18  1  0
  6 19  1  0
  9 20  1  0
 10 21  1  0
 11 22  1  0
 12 23  1  0
 13 24  1  0
M  END
>  <ofe-name>  (119) 
lig_0118

$$$$
lig_0119
     RDKit          3D

 22 22  0  0  0  0  0  0  0  0999 V2000
    1.1664    1.5307   -0.2052 C   0  0  0  0  0  0  0  0  0  0  0  0
   -0.0458    2.2214   -0.2338 C   0  0  0  0  0  0  0  0  0  0  0  0
   -1.2321    1.5696    0.1031 C   0  0  0  0  0  0  0  0  0  0  0  0
   -1.2183    0.2201    0.4784 C   0  0  0  0  0  0  0  0  0  0  0  0
   -2.5011   -0.4977    0.8087 C   0  0  0  0  0  0  0  0  0  0  0  0
   -3.0680   -1.1371   -0.3734 N   0  0  0  0  0  0  0  0  0  0  0  0
    0.0050   -0.4669    0.4967 C   0  0  0  0  0  0  0  0  0  0  0  0
    1.2055    0.1794    0.1616 C   0  0  0  0  0  0  0  0  0  0  0  0
    2.5093   -0.5758    0.1904 C   0  0  0  0  0  0  0  0  0  0  0  0
    2.5493   -1.6050   -0.8416 N   0  0  0  0  0  0  0  0  0  0  0  0
    2.0803    2.0553   -0.4738 H   0  0  0  0  0  0  0  0  0  0  0  0
   -0.0664    3.2692   -0.5222 H   0  0  0  0  0  0  0  0  0  0  0  0
   -2.1701    2.1194    0.0694 H   0  0  0  0  0  0  0  0  0  0  0  0
   -2.3208   -1.2512    1.5840 H   0  0  0  0  0  0  0  0  0  0  0  0
   -3.2293    0.2055    1.2288 H   0  0  0  0  0  0  0  0  0  0  0  0
   -2.3747   -1.7833   -0.7507 H   0  0  0  0  0  0  0  0  0  0  0  0
   -3.1915   -0.4285   -1.0955 H   0  0  0  0  0  0  0  0  0  0  0  0
    0.0291   -1.5224    0.7655 H   0  0  0  0  0  0  0  0  0  0  0  0
    2.6382   -1.0352    1.1770 H   0  0  0  0  0  0  0  0  0  0  0  0
    3.3516    0.1110    0.0481 H   0  0  0  0  0  0  0  0  0  0  0  0
    3.4804   -2.0149   -0.8670 H   0  0  0  0  0  0  0  0  0  0  0  0
    2.4029   -1.1637   -1.7484 H   0  0  0  0  0  0  0  0  0  0  0  0
  1  2  2  0
  2  3  1  0
  3  4  2  0
  4  5  1  0
  5  6  1  0
  4  7  1  0
  7  8  2  0
  8  9  1  0
  9 10  1  0
  8  1  1  0
  1 11  1  0
  2 12  1  0
  3 13  1  0
  5 14  1  0
  5 15  1  0
  6 16  1  0
  6 17  1  0
  7 18  1  0
  9 19  1  0
  9 20  1  0
 10 21  1  0
 10 22  1  0
M  END
>  <ofe-name>  (120) 
lig_0119

$$$$
lig_0120
     RDKit          3D

 17 17  0  0  0  0  0  0  0  0999 V2000
    2.4181   -0.0162    0.4455 C   0  0  0  0  0  0  0  0  0  0  0  0
    1.5096   -0.1441    1.4937 C   0  0  0  0  0  0  0  0  0  0  0  0
    0.1400   -0.0156    1.2470 C   0  0  0  0  0  0  0  0  0  0  0  0
   -0.3368    0.2435   -0.0490 C   0  0  0  0  0  0  0  0  0  0  0  0
   -1.8148    0.3810   -0.3056 C   0  0  0  0  0  0  0  0  0  0  0  0
   -2.5096   -0.8811   -0.0875 N   0  0  0  0  0  0  0  0  0  0  0  0
    0.5872    0.3660   -1.0950 C   0  0  0  0  0  0  0  0  0  0  0  0
    1.9489    0.2363   -0.8380 C   0  0  0  0  0  0  0  0  0  0  0  0
    2.8223    0.3570   -1.8468 F   0  0  0  0  0  0  0  0  0  0  0  0
    3.4845   -0.1143    0.6192 H   0  0  0  0  0  0  0  0  0  0  0  0
    1.8629   -0.3476    2.5011 H   0  0  0  0  0  0  0  0  0  0  0  0
   -0.5657   -0.1277    2.0689 H   0  0  0  0  0  0  0  0  0  0  0  0
   -1.9946    0.7197   -1.3324 H   0  0  0  0  0  0  0  0  0  0  0  0
   -2.2256    1.1500    0.3585 H   0  0  0  0  0  0  0  0  0  0  0  0
   -2.1065   -1.5895   -0.6993 H   0  0  0  0  0  0  0  0  0  0  0  0
   -3.4828   -0.7793   -0.3677 H   0  0  0  0  0  0  0  0  0  0  0  0
    0.2630    0.5617   -2.1125 H   0  0  0  0  0  0  0  0  0  0  0  0
  1  2  2  0
  2  3  1  0
  3  4  2  0
  4  5  1  0
  5  6  1  0
  4  7  1  0
  7  8  2  0
  8  9  1  0
  8  1  1  0
  1 10  1  0
  2 11  1  0
  3 12  1  0
  5 13  1  0
  5 14  1  0
  6 15  1  0
  6 16  1  0
  7 17  1  0
M  END
>  <ofe-name>  (121) 
lig_0120

$$$$
lig_0121
     RDKit          3D

 17 17  0  0  0  0  0  0  0  0999 V2000
    2.4306   -0.2619   -0.1254 C   0  0  0  0  0  0  0  0  0  0  0  0
    1.6003   -1.3504   -0.3883 C   0  0  0  0  0  0  0  0  0  0  0  0
    0.2211   -1.2364   -0.2024 C   0  0  0  0  0  0  0  0  0  0  0  0
   -0.3450   -0.0342    0.2503 C   0  0  0  0  0  0  0  0  0  0  0  0
   -1.8344    0.0802    0.4471 C   0  0  0  0  0  0  0  0  0  0  0  0
   -2.5423    0.0110   -0.8244 N   0  0  0  0  0  0  0  0  0  0  0  0
    0.4987    1.0561    0.5073 C   0  0  0  0  0  0  0  0  0  0  0  0
    1.8764    0.9364    0.3198 C   0  0  0  0  0  0  0  0  0  0  0  0
    2.9002    2.2826    0.6412 Cl  0  0  0  0  0  0  0  0  0  0  0  0
    3.5032   -0.3529   -0.2721 H   0  0  0  0  0  0  0  0  0  0  0  0
    2.0242   -2.2868   -0.7420 H   0  0  0  0  0  0  0  0  0  0  0  0
   -0.4220   -2.0875   -0.4210 H   0  0  0  0  0  0  0  0  0  0  0  0
   -2.1740   -0.7279    1.1050 H   0  0  0  0  0  0  0  0  0  0  0  0
   -2.0827    1.0224    0.9489 H   0  0  0  0  0  0  0  0  0  0  0  0
   -2.2064    0.7580   -1.4307 H   0  0  0  0  0  0  0  0  0  0  0  0
   -3.5315    0.1918   -0.6665 H   0  0  0  0  0  0  0  0  0  0  0  0
    0.0838    1.9994    0.8533 H   0  0  0  0  0  0  0  0  0  0  0  0
  1  2  2  0
  2  3  1  0
  3  4  2  0
  4  5  1  0
  5  6  1  0
  4  7  1  0
  7  8  2  0
  8  9  1  0
  8  1  1  0
  1 10  1  0
  2 11  1  0
  3 12  1  0
  5 13  1  0
  5 14  1  0
  6 15  1  0
  6 16  1  0
  7 17  1  0
M  END
>  <ofe-name>  (122) 
lig_0121

$$$$
lig_0122
     RDKit          3D

 17 17  0  0  0  0  0  0  0  0999 V2000
    2.3200   -0.4251   -0.1016 C   0  0  0  0  0  0  0  0  0  0  0  0
    1.4405   -1.5047   -0.0287 C   0  0  0  0  0  0  0  0  0  0  0  0
    0.0768   -1.2837    0.1748 C   0  0  0  0  0  0  0  0  0  0  0  0
   -0.4216    0.0203    0.3149 C   0  0  0  0  0  0  0  0  0  0  0  0
   -1.8966    0.2591    0.5078 C   0  0  0  0  0  0  0  0  0  0  0  0
   -2.5780    0.4139   -0.7709 N   0  0  0  0  0  0  0  0  0  0  0  0
    0.4689    1.1012    0.2312 C   0  0  0  0  0  0  0  0  0  0  0  0
    1.8300    0.8728    0.0273 C   0  0  0  0  0  0  0  0  0  0  0  0
    3.0201    2.3384   -0.0787 Br  0  0  0  0  0  0  0  0  0  0  0  0
    3.3797   -0.6053   -0.2605 H   0  0  0  0  0  0  0  0  0  0  0  0
    1.8168   -2.5195   -0.1318 H   0  0  0  0  0  0  0  0  0  0  0  0
   -0.5982   -2.1360    0.2252 H   0  0  0  0  0  0  0  0  0  0  0  0
   -2.3430   -0.5739    1.0630 H   0  0  0  0  0  0  0  0  0  0  0  0
   -2.0558    1.1542    1.1200 H   0  0  0  0  0  0  0  0  0  0  0  0
   -2.4058   -0.4155   -1.3375 H   0  0  0  0  0  0  0  0  0  0  0  0
   -2.1497    1.1854   -1.2809 H   0  0  0  0  0  0  0  0  0  0  0  0
    0.0960    2.1185    0.3264 H   0  0  0  0  0  0  0  0  0  0  0  0
  1  2  2  0
  2  3  1  0
  3  4  2  0
  4  5  1  0
  5  6  1  0
  4  7  1  0
  7  8  2  0
  8  9  1  0
  8  1  1  0
  1 10  1  0
  2 11  1  0
  3 12  1  0
  5 13  1  0
  5 14  1  0
  6 15  1  0
  6 16  1  0
  7 17  1  0
M  END
>  <ofe-name>  (123) 
lig_0122

$$$$
lig_0123
     RDKit          3D

 20 20  0  0  0  0  0  0  0  0999 V2000
    1.6552   -1.3356   -0.0422 C   0  0  0  0  0  0  0  0  0  0  0  0
    0.5317   -2.1583    0.0417 C   0  0  0  0  0  0  0  0  0  0  0  0
   -0.7472   -1.6076   -0.0585 C   0  0  0  0  0  0  0  0  0  0  0  0
   -0.9173   -0.2285   -0.2471 C   0  0  0  0  0  0  0  0  0  0  0  0
   -2.2958    0.3720   -0.3489 C   0  0  0  0  0  0  0  0  0  0  0  0
   -2.6141    1.1612    0.8332 N   0  0  0  0  0  0  0  0  0  0  0  0
    0.2197    0.5932   -0.3250 C   0  0  0  0  0  0  0  0  0  0  0  0
    1.5043    0.0439   -0.2251 C   0  0  0  0  0  0  0  0  0  0  0  0
    2.7273    0.8788   -0.3037 C   0  0  0  0  0  0  0  0  0  0  0  0
    3.8718    0.4778   -0.1959 O   0  0  0  0  0  0  0  0  0  0  0  0
    2.4632    2.1792   -0.5210 O   0  0  0  0  0  0  0  0  0  0  0  0
    2.6486   -1.7726    0.0383 H   0  0  0  0  0  0  0  0  0  0  0  0
    0.6535   -3.2289    0.1870 H   0  0  0  0  0  0  0  0  0  0  0  0
   -1.6121   -2.2637    0.0128 H   0  0  0  0  0  0  0  0  0  0  0  0
   -3.0473   -0.4160   -0.4740 H   0  0  0  0  0  0  0  0  0  0  0  0
   -2.3498    1.0041   -1.2426 H   0  0  0  0  0  0  0  0  0  0  0  0
   -3.5819    1.4715    0.7782 H   0  0  0  0  0  0  0  0  0  0  0  0
   -2.5479    0.5653    1.6570 H   0  0  0  0  0  0  0  0  0  0  0  0
    0.0894    1.6663   -0.4538 H   0  0  0  0  0  0  0  0  0  0  0  0
    3.3485    2.5980   -0.5449 H   0  0  0  0  0  0  0  0  0  0  0  0
  1  2  2  0
  2  3  1  0
  3  4  2  0
  4  5  1  0
  5  6  1  0
  4  7  1  0
  7  8  2  0
  8  9  1  0
  9 10  2  0
  9 11  1  0
  8  1  1  0
  1 12  1  0
  2 13  1  0
  3 14  1  0
  5 15  1  0
  5 16  1  0
  6 17  1  0
  6 18  1  0
  7 19  1  0
 11 20  1  0
M  END
>  <ofe-name>  (124) 
lig_0123

$$$$
lig_0124
     RDKit          3D

 21 21  0  0  0  0  0  0  0  0999 V2000
    1.1175   -1.0365   -1.4796 C   0  0  0  0  0  0  0  0  0  0  0  0
   -0.0225   -1.8324   -1.3754 C   0  0  0  0  0  0  0  0  0  0  0  0
   -1.0967   -1.4112   -0.5910 C   0  0  0  0  0  0  0  0  0  0  0  0
   -1.0502   -0.1855    0.0908 C   0  0  0  0  0  0  0  0  0  0  0  0
   -2.2275    0.2682    0.9157 C   0  0  0  0  0  0  0  0  0  0  0  0
   -2.4030   -0.5713    2.0930 N   0  0  0  0  0  0  0  0  0  0  0  0
    0.1049    0.6060   -0.0125 C   0  0  0  0  0  0  0  0  0  0  0  0
    1.1920    0.1782   -0.7887 C   0  0  0  0  0  0  0  0  0  0  0  0
    2.4301    0.9907   -0.9253 C   0  0  0  0  0  0  0  0  0  0  0  0
    3.1862    0.8620   -1.8795 O   0  0  0  0  0  0  0  0  0  0  0  0
    2.7217    1.8676    0.0838 N   0  0  0  0  0  0  0  0  0  0  0  0
    1.9510   -1.3670   -2.0963 H   0  0  0  0  0  0  0  0  0  0  0  0
   -0.0744   -2.7803   -1.9049 H   0  0  0  0  0  0  0  0  0  0  0  0
   -1.9803   -2.0423   -0.5094 H   0  0  0  0  0  0  0  0  0  0  0  0
   -3.1330    0.2363    0.2990 H   0  0  0  0  0  0  0  0  0  0  0  0
   -2.0958    1.3099    1.2300 H   0  0  0  0  0  0  0  0  0  0  0  0
   -1.5556   -0.5391    2.6569 H   0  0  0  0  0  0  0  0  0  0  0  0
   -3.1503   -0.1896    2.6691 H   0  0  0  0  0  0  0  0  0  0  0  0
    0.1378    1.5675    0.4920 H   0  0  0  0  0  0  0  0  0  0  0  0
    3.6368    2.2977    0.0314 H   0  0  0  0  0  0  0  0  0  0  0  0
    2.3113    1.7712    1.0010 H   0  0  0  0  0  0  0  0  0  0  0  0
  1  2  2  0
  2  3  1  0
  3  4  2  0
  4  5  1  0
  5  6  1  0
  4  7  1  0
  7  8  2  0
  8  9  1  0
  9 10  2  0
  9 11  1  0
  8  1  1  0
  1 12  1  0
  2 13  1  0
  3 14  1  0
  5 15  1  0
  5 16  1  0
  6 17  1  0
  6 18  1  0
  7 19  1  0
 11 20  1  0
 11 21  1  0
M  END
>  <ofe-name>  (125) 
lig_0124

$$$$
lig_0125
     RDKit          3D

 18 18  0  0  0  0  0  0  0  0999 V2000
    1.9528    0.9517   -0.0733 C   0  0  0  0  0  0  0  0  0  0  0  0
    0.8647    1.8231   -0.0068 C   0  0  0  0  0  0  0  0  0  0  0  0
   -0.4351    1.3292   -0.1197 C   0  0  0  0  0  0  0  0  0  0  0  0
   -0.6599   -0.0409   -0.3107 C   0  0  0  0  0  0  0  0  0  0  0  0
   -2.0630   -0.5802   -0.4115 C   0  0  0  0  0  0  0  0  0  0  0  0
   -2.5820   -0.9498    0.8994 N   0  0  0  0  0  0  0  0  0  0  0  0
    0.4416   -0.9096   -0.3669 C   0  0  0  0  0  0  0  0  0  0  0  0
    1.7456   -0.4188   -0.2465 C   0  0  0  0  0  0  0  0  0  0  0  0
    3.1222   -1.5429   -0.3361 S   0  0  0  0  0  0  0  0  0  0  0  0
    2.9585    1.3558    0.0084 H   0  0  0  0  0  0  0  0  0  0  0  0
    1.0304    2.8887    0.1314 H   0  0  0  0  0  0  0  0  0  0  0  0
   -1.2743    2.0197   -0.0628 H   0  0  0  0  0  0  0  0  0  0  0  0
   -2.0840   -1.4526   -1.0748 H   0  0  0  0  0  0  0  0  0  0  0  0
   -2.7214    0.1672   -0.8690 H   0  0  0  0  0  0  0  0  0  0  0  0
   -2.5327   -0.1372    1.5124 H   0  0  0  0  0  0  0  0  0  0  0  0
   -1.9593   -1.6418    1.3146 H   0  0  0  0  0  0  0  0  0  0  0  0
    0.2766   -1.9765   -0.5062 H   0  0  0  0  0  0  0  0  0  0  0  0
    3.9192   -0.8851    0.5181 H   0  0  0  0  0  0  0  0  0  0  0  0
  1  2  2  0
  2  3  1  0
  3  4  2  0
  4  5  1  0
  5  6  1  0
  4  7  1  0
  7  8  2  0
  8  9  1  0
  8  1  1  0
  1 10  1  0
  2 11  1  0
  3 12  1  0
  5 13  1  0
  5 14  1  0
  6 15  1  0
  6 16  1  0
  7 17  1  0
  9 18  1  0
M  END
>  <ofe-name>  (126) 
lig_0125

$$$$
lig_0126
     RDKit          3D

 21 21  0  0  0  0  0  0  0  0999 V2000
    1.2783    1.4419   -0.2816 C   0  0  0  0  0  0  0  0  0  0  0  0
    0.1276    2.0145   -0.8234 C   0  0  0  0  0  0  0  0  0  0  0  0
   -1.1077    1.3870   -0.6653 C   0  0  0  0  0  0  0  0  0  0  0  0
   -1.2059    0.1805    0.0398 C   0  0  0  0  0  0  0  0  0  0  0  0
   -2.5330   -0.5200    0.1763 C   0  0  0  0  0  0  0  0  0  0  0  0
   -2.7542   -1.4517   -0.9232 N   0  0  0  0  0  0  0  0  0  0  0  0
   -0.0413   -0.3914    0.5753 C   0  0  0  0  0  0  0  0  0  0  0  0
    1.2059    0.2362    0.4292 C   0  0  0  0  0  0  0  0  0  0  0  0
    2.4492   -0.3908    1.0019 C   0  0  0  0  0  0  0  0  0  0  0  0
    3.2133   -1.5627   -0.1510 S   0  0  0  0  0  0  0  0  0  0  0  0
    2.2355    1.9388   -0.4247 H   0  0  0  0  0  0  0  0  0  0  0  0
    0.1952    2.9478   -1.3765 H   0  0  0  0  0  0  0  0  0  0  0  0
   -1.9949    1.8411   -1.1011 H   0  0  0  0  0  0  0  0  0  0  0  0
   -2.5766   -1.0595    1.1294 H   0  0  0  0  0  0  0  0  0  0  0  0
   -3.3458    0.2148    0.2035 H   0  0  0  0  0  0  0  0  0  0  0  0
   -1.9793   -2.1142   -0.9472 H   0  0  0  0  0  0  0  0  0  0  0  0
   -2.6898   -0.9374   -1.8011 H   0  0  0  0  0  0  0  0  0  0  0  0
   -0.1067   -1.3402    1.1058 H   0  0  0  0  0  0  0  0  0  0  0  0
    3.1815    0.3835    1.2564 H   0  0  0  0  0  0  0  0  0  0  0  0
    2.2115   -0.9141    1.9347 H   0  0  0  0  0  0  0  0  0  0  0  0
    4.2374   -1.9042    0.6431 H   0  0  0  0  0  0  0  0  0  0  0  0
  1  2  2  0
  2  3  1  0
  3  4  2  0
  4  5  1  0
  5  6  1  0
  4  7  1  0
  7  8  2  0
  8  9  1  0
  9 10  1  0
  8  1  1  0
  1 11  1  0
  2 12  1  0
  3 13  1  0
  5 14  1  0
  5 15  1  0
  6 16  1  0
  6 17  1  0
  7 18  1  0
  9 19  1  0
  9 20  1  0
 10 21  1  0
M  END
>  <ofe-name>  (127) 
lig_0126

$$$$
lig_0127
     RDKit          3D

 29 29  0  0  0  0  0  0  0  0999 V2000
   -0.0788   -1.7684   -0.0980 C   0  0  0  0  0  0  0  0  0  0  0  0
    1.2389   -2.2146   -0.2152 C   0  0  0  0  0  0  0  0  0  0  0  0
    2.2782   -1.2969   -0.3228 C   0  0  0  0  0  0  0  0  0  0  0  0
    2.0097    0.0758   -0.3158 C   0  0  0  0  0  0  0  0  0  0  0  0
    3.1369    1.0702   -0.4346 C   0  0  0  0  0  0  0  0  0  0  0  0
    4.0014    1.0386    0.7390 N   0  0  0  0  0  0  0  0  0  0  0  0
    0.6773    0.5114   -0.1924 C   0  0  0  0  0  0  0  0  0  0  0  0
   -0.3929   -0.3957   -0.0825 C   0  0  0  0  0  0  0  0  0  0  0  0
   -1.8577    0.0575    0.0520 C   0  0  0  0  0  0  0  0  0  0  0  0
   -2.0412    1.5921    0.0519 C   0  0  0  0  0  0  0  0  0  0  0  0
   -2.6840   -0.4999   -1.1273 C   0  0  0  0  0  0  0  0  0  0  0  0
   -2.4448   -0.4714    1.3786 C   0  0  0  0  0  0  0  0  0  0  0  0
   -0.8639   -2.5166   -0.0150 H   0  0  0  0  0  0  0  0  0  0  0  0
    1.4537   -3.2798   -0.2185 H   0  0  0  0  0  0  0  0  0  0  0  0
    3.3041   -1.6497   -0.4033 H   0  0  0  0  0  0  0  0  0  0  0  0
    2.7400    2.0839   -0.5620 H   0  0  0  0  0  0  0  0  0  0  0  0
    3.7233    0.8453   -1.3327 H   0  0  0  0  0  0  0  0  0  0  0  0
    3.4314    1.1998    1.5682 H   0  0  0  0  0  0  0  0  0  0  0  0
    4.6630    1.8097    0.6870 H   0  0  0  0  0  0  0  0  0  0  0  0
    0.4948    1.5826   -0.1840 H   0  0  0  0  0  0  0  0  0  0  0  0
   -1.6781    2.0420   -0.8795 H   0  0  0  0  0  0  0  0  0  0  0  0
   -3.0994    1.8635    0.1490 H   0  0  0  0  0  0  0  0  0  0  0  0
   -1.5109    2.0621    0.8883 H   0  0  0  0  0  0  0  0  0  0  0  0
   -3.7257   -0.1623   -1.0745 H   0  0  0  0  0  0  0  0  0  0  0  0
   -2.7032   -1.5952   -1.1393 H   0  0  0  0  0  0  0  0  0  0  0  0
   -2.2738   -0.1674   -2.0882 H   0  0  0  0  0  0  0  0  0  0  0  0
   -2.4586   -1.5660    1.4188 H   0  0  0  0  0  0  0  0  0  0  0  0
   -1.8611   -0.1179    2.2368 H   0  0  0  0  0  0  0  0  0  0  0  0
   -3.4785   -0.1330    1.5161 H   0  0  0  0  0  0  0  0  0  0  0  0
  1  2  1  0
  2  3  2  0
  3  4  1  0
  4  5  1  0
  5  6  1  0
  4  7  2  0
  7  8  1  0
  8  9  1  0
  9 10  1  0
  9 11  1  0
  9 12  1  0
  8  1  2  0
  1 13  1  0
  2 14  1  0
  3 15  1  0
  5 16  1  0
  5 17  1  0
  6 18  1  0
  6 19  1  0
  7 20  1  0
 10 21  1  0
 10 22  1  0
 10 23  1  0
 11 24  1  0
 11 25  1  0
 11 26  1  0
 12 27  1  0
 12 28  1  0
 12 29  1  0
M  END
>  <ofe-name>  (128) 
lig_0127

$$$$
lig_0128
     RDKit          3D

 21 21  0  0  0  0  0  0  0  0999 V2000
   -0.8339   -1.6911   -1.0582 C   0  0  0  0  0  0  0  0  0  0  0  0
    0.4304   -1.6469   -1.6453 C   0  0  0  0  0  0  0  0  0  0  0  0
    1.3059   -0.6091   -1.3319 C   0  0  0  0  0  0  0  0  0  0  0  0
    0.9195    0.3952   -0.4339 C   0  0  0  0  0  0  0  0  0  0  0  0
    1.8752    1.5028   -0.0720 C   0  0  0  0  0  0  0  0  0  0  0  0
    2.6931    1.1393    1.0786 N   0  0  0  0  0  0  0  0  0  0  0  0
   -0.3550    0.3339    0.1578 C   0  0  0  0  0  0  0  0  0  0  0  0
   -1.2348   -0.7046   -0.1547 C   0  0  0  0  0  0  0  0  0  0  0  0
   -2.4956   -0.8712    0.3491 O   0  0  0  0  0  0  0  0  0  0  0  0
   -2.9626    0.1186    1.2567 C   0  0  0  0  0  0  0  0  0  0  0  0
   -1.5141   -2.5027   -1.3051 H   0  0  0  0  0  0  0  0  0  0  0  0
    0.7308   -2.4225   -2.3447 H   0  0  0  0  0  0  0  0  0  0  0  0
    2.2915   -0.5859   -1.7917 H   0  0  0  0  0  0  0  0  0  0  0  0
    2.5234    1.7346   -0.9249 H   0  0  0  0  0  0  0  0  0  0  0  0
    1.3199    2.4219    0.1480 H   0  0  0  0  0  0  0  0  0  0  0  0
    2.0780    0.9002    1.8552 H   0  0  0  0  0  0  0  0  0  0  0  0
    3.1972    0.2803    0.8608 H   0  0  0  0  0  0  0  0  0  0  0  0
   -0.6337    1.1127    0.8607 H   0  0  0  0  0  0  0  0  0  0  0  0
   -3.9804   -0.1531    1.5529 H   0  0  0  0  0  0  0  0  0  0  0  0
   -3.0065    1.1033    0.7797 H   0  0  0  0  0  0  0  0  0  0  0  0
   -2.3482    0.1442    2.1627 H   0  0  0  0  0  0  0  0  0  0  0  0
  1  2  2  0
  2  3  1  0
  3  4  2  0
  4  5  1  0
  5  6  1  0
  4  7  1  0
  7  8  2  0
  8  9  1  0
  9 10  1  0
  8  1  1  0
  1 11  1  0
  2 12  1  0
  3 13  1  0
  5 14  1  0
  5 15  1  0
  6 16  1  0
  6 17  1  0
  7 18  1  0
 10 19  1  0
 10 20  1  0
 10 21  1  0
M  END
>  <ofe-name>  (129) 
lig_0128

$$$$
lig_0129
     RDKit          3D

 24 24  0  0  0  0  0  0  0  0999 V2000
    0.6571   -1.6450   -1.2131 C   0  0  0  0  0  0  0  0  0  0  0  0
   -0.6037   -2.1625   -1.5094 C   0  0  0  0  0  0  0  0  0  0  0  0
   -1.7488   -1.5061   -1.0603 C   0  0  0  0  0  0  0  0  0  0  0  0
   -1.6405   -0.3268   -0.3113 C   0  0  0  0  0  0  0  0  0  0  0  0
   -2.8745    0.3965    0.1656 C   0  0  0  0  0  0  0  0  0  0  0  0
   -2.9061    0.5008    1.6201 N   0  0  0  0  0  0  0  0  0  0  0  0
   -0.3616    0.1839   -0.0217 C   0  0  0  0  0  0  0  0  0  0  0  0
    0.7875   -0.4722   -0.4668 C   0  0  0  0  0  0  0  0  0  0  0  0
    2.0783   -0.0764   -0.2457 O   0  0  0  0  0  0  0  0  0  0  0  0
    2.2683    1.0903    0.5528 C   0  0  0  0  0  0  0  0  0  0  0  0
    3.7621    1.3240    0.6910 C   0  0  0  0  0  0  0  0  0  0  0  0
    1.5476   -2.1601   -1.5644 H   0  0  0  0  0  0  0  0  0  0  0  0
   -0.6907   -3.0767   -2.0903 H   0  0  0  0  0  0  0  0  0  0  0  0
   -2.7249   -1.9211   -1.2999 H   0  0  0  0  0  0  0  0  0  0  0  0
   -2.8962    1.3982   -0.2781 H   0  0  0  0  0  0  0  0  0  0  0  0
   -3.7775   -0.1240   -0.1734 H   0  0  0  0  0  0  0  0  0  0  0  0
   -2.8553   -0.4378    2.0148 H   0  0  0  0  0  0  0  0  0  0  0  0
   -3.8042    0.8845    1.9064 H   0  0  0  0  0  0  0  0  0  0  0  0
   -0.3011    1.0971    0.5630 H   0  0  0  0  0  0  0  0  0  0  0  0
    1.8359    0.9453    1.5496 H   0  0  0  0  0  0  0  0  0  0  0  0
    1.8142    1.9616    0.0669 H   0  0  0  0  0  0  0  0  0  0  0  0
    3.9634    2.2118    1.2970 H   0  0  0  0  0  0  0  0  0  0  0  0
    4.2460    0.4598    1.1580 H   0  0  0  0  0  0  0  0  0  0  0  0
    4.2245    1.4551   -0.2930 H   0  0  0  0  0  0  0  0  0  0  0  0
  1  2  2  0
  2  3  1  0
  3  4  2  0
  4  5  1  0
  5  6  1  0
  4  7  1  0
  7  8  2  0
  8  9  1  0
  9 10  1  0
 10 11  1  0
  8  1  1  0
  1 12  1  0
  2 13  1  0
  3 14  1  0
  5 15  1  0
  5 16  1  0
  6 17  1  0
  6 18  1  0
  7 19  1  0
 10 20  1  0
 10 21  1  0
 11 22  1  0
 11 23  1  0
 11 24  1  0
M  END
>  <ofe-name>  (130) 
lig_0129

$$$$
lig_0130
     RDKit          3D

 24 24  0  0  0  0  0  0  0  0999 V2000
   -0.2001   -1.9759    0.0266 C   0  0  0  0  0  0  0  0  0  0  0  0
   -1.4845   -2.0958    0.5609 C   0  0  0  0  0  0  0  0  0  0  0  0
   -2.1430   -0.9708    1.0515 C   0  0  0  0  0  0  0  0  0  0  0  0
   -1.5179    0.2816    1.0189 C   0  0  0  0  0  0  0  0  0  0  0  0
   -2.2336    1.5077    1.5256 C   0  0  0  0  0  0  0  0  0  0  0  0
   -2.9351    2.1934    0.4468 N   0  0  0  0  0  0  0  0  0  0  0  0
   -0.2277    0.3912    0.4693 C   0  0  0  0  0  0  0  0  0  0  0  0
    0.4394   -0.7311   -0.0270 C   0  0  0  0  0  0  0  0  0  0  0  0
    1.7325   -0.6967   -0.5893 N   0  0  0  0  0  0  0  0  0  0  0  0
    2.5500    0.4062   -0.7583 C   0  0  0  0  0  0  0  0  0  0  0  0
    2.3062    1.5639   -0.4383 O   0  0  0  0  0  0  0  0  0  0  0  0
    3.8721    0.0431   -1.3878 C   0  0  0  0  0  0  0  0  0  0  0  0
    0.2889   -2.8706   -0.3494 H   0  0  0  0  0  0  0  0  0  0  0  0
   -1.9720   -3.0668    0.5929 H   0  0  0  0  0  0  0  0  0  0  0  0
   -3.1455   -1.0735    1.4613 H   0  0  0  0  0  0  0  0  0  0  0  0
   -2.9501    1.2295    2.3070 H   0  0  0  0  0  0  0  0  0  0  0  0
   -1.5190    2.1928    1.9963 H   0  0  0  0  0  0  0  0  0  0  0  0
   -3.5438    1.5256   -0.0237 H   0  0  0  0  0  0  0  0  0  0  0  0
   -2.2492    2.4759   -0.2535 H   0  0  0  0  0  0  0  0  0  0  0  0
    0.2340    1.3740    0.4440 H   0  0  0  0  0  0  0  0  0  0  0  0
    2.1000   -1.5861   -0.9025 H   0  0  0  0  0  0  0  0  0  0  0  0
    3.7391   -0.7143   -2.1657 H   0  0  0  0  0  0  0  0  0  0  0  0
    4.3103    0.9316   -1.8515 H   0  0  0  0  0  0  0  0  0  0  0  0
    4.5488   -0.3349   -0.6170 H   0  0  0  0  0  0  0  0  0  0  0  0
  1  2  2  0
  2  3  1  0
  3  4  2  0
  4  5  1  0
  5  6  1  0
  4  7  1  0
  7  8  2  0
  8  9  1  0
  9 10  1  0
 10 11  2  0
 10 12  1  0
  8  1  1  0
  1 13  1  0
  2 14  1  0
  3 15  1  0
  5 16  1  0
  5 17  1  0
  6 18  1  0
  6 19  1  0
  7 20  1  0
  9 21  1  0
 12 22  1  0
 12 23  1  0
 12 24  1  0
M  END
>  <ofe-name>  (131) 
lig_0130

$$$$
lig_0131
     RDKit          3D

 27 28  0  0  0  0  0  0  0  0999 V2000
   -0.1220    1.5908    1.0788 C   0  0  0  0  0  0  0  0  0  0  0  0
    1.1374    2.0505    1.4681 C   0  0  0  0  0  0  0  0  0  0  0  0
    2.2763    1.3098    1.1590 C   0  0  0  0  0  0  0  0  0  0  0  0
    2.1700    0.1018    0.4582 C   0  0  0  0  0  0  0  0  0  0  0  0
    3.4021   -0.7020    0.1319 C   0  0  0  0  0  0  0  0  0  0  0  0
    4.2686    0.0068   -0.8022 N   0  0  0  0  0  0  0  0  0  0  0  0
    0.8969   -0.3457    0.0683 C   0  0  0  0  0  0  0  0  0  0  0  0
   -0.2650    0.3868    0.3714 C   0  0  0  0  0  0  0  0  0  0  0  0
   -1.5932   -0.0958   -0.0412 C   0  0  0  0  0  0  0  0  0  0  0  0
   -1.8680   -0.3983   -1.3853 C   0  0  0  0  0  0  0  0  0  0  0  0
   -3.1286   -0.8567   -1.7777 C   0  0  0  0  0  0  0  0  0  0  0  0
   -4.1363   -1.0213   -0.8307 C   0  0  0  0  0  0  0  0  0  0  0  0
   -3.8849   -0.7273    0.5070 C   0  0  0  0  0  0  0  0  0  0  0  0
   -2.6241   -0.2678    0.8974 C   0  0  0  0  0  0  0  0  0  0  0  0
   -0.9978    2.1898    1.3196 H   0  0  0  0  0  0  0  0  0  0  0  0
    1.2306    2.9894    2.0072 H   0  0  0  0  0  0  0  0  0  0  0  0
    3.2558    1.6787    1.4573 H   0  0  0  0  0  0  0  0  0  0  0  0
    3.1234   -1.6700   -0.3002 H   0  0  0  0  0  0  0  0  0  0  0  0
    3.9496   -0.9138    1.0573 H   0  0  0  0  0  0  0  0  0  0  0  0
    5.0217   -0.6124   -1.0935 H   0  0  0  0  0  0  0  0  0  0  0  0
    3.7338    0.2274   -1.6411 H   0  0  0  0  0  0  0  0  0  0  0  0
    0.8042   -1.2875   -0.4701 H   0  0  0  0  0  0  0  0  0  0  0  0
   -1.0980   -0.2646   -2.1424 H   0  0  0  0  0  0  0  0  0  0  0  0
   -3.3224   -1.0811   -2.8232 H   0  0  0  0  0  0  0  0  0  0  0  0
   -5.1169   -1.3776   -1.1351 H   0  0  0  0  0  0  0  0  0  0  0  0
   -4.6682   -0.8566    1.2493 H   0  0  0  0  0  0  0  0  0  0  0  0
   -2.4450   -0.0535    1.9492 H   0  0  0  0  0  0  0  0  0  0  0  0
  1  2  2  0
  2  3  1  0
  3  4  2  0
  4  5  1  0
  5  6  1  0
  4  7  1  0
  7  8  2  0
  8  9  1  0
  9 10  2  0
 10 11  1  0
 11 12  2  0
 12 13  1  0
 13 14  2  0
  8  1  1  0
 14  9  1  0
  1 15  1  0
  2 16  1  0
  3 17  1  0
  5 18  1  0
  5 19  1  0
  6 20  1  0
  6 21  1  0
  7 22  1  0
 10 23  1  0
 11 24  1  0
 12 25  1  0
 13 26  1  0
 14 27  1  0
M  END
>  <ofe-name>  (132) 
lig_0131

$$$$
lig_0132
     RDKit          3D

 12 12  0  0  0  0  0  0  0  0999 V2000
    1.1956    0.7379   -0.0195 C   0  0  0  0  0  0  0  0  0  0  0  0
   -0.0202    1.4219    0.0218 C   0  0  0  0  0  0  0  0  0  0  0  0
   -1.2161    0.7027    0.0416 C   0  0  0  0  0  0  0  0  0  0  0  0
   -1.1841   -0.6900    0.0199 C   0  0  0  0  0  0  0  0  0  0  0  0
   -2.3357   -1.3738    0.0391 F   0  0  0  0  0  0  0  0  0  0  0  0
    0.0196   -1.3802   -0.0212 C   0  0  0  0  0  0  0  0  0  0  0  0
    1.2032   -0.6551   -0.0405 C   0  0  0  0  0  0  0  0  0  0  0  0
    2.3737   -1.3050   -0.0801 F   0  0  0  0  0  0  0  0  0  0  0  0
    2.1367    1.2794   -0.0354 H   0  0  0  0  0  0  0  0  0  0  0  0
   -0.0357    2.5087    0.0385 H   0  0  0  0  0  0  0  0  0  0  0  0
   -2.1721    1.2164    0.0737 H   0  0  0  0  0  0  0  0  0  0  0  0
    0.0350   -2.4630   -0.0378 H   0  0  0  0  0  0  0  0  0  0  0  0
  1  2  2  0
  2  3  1  0
  3  4  2  0
  4  5  1  0
  4  6  1  0
  6  7  2  0
  7  8  1  0
  7  1  1  0
  1  9  1  0
  2 10  1  0
  3 11  1  0
  6 12  1  0
M  END
>  <ofe-name>  (133) 
lig_0132

$$$$
lig_0133
     RDKit          3D

 12 12  0  0  0  0  0  0  0  0999 V2000
    0.7254    1.1865   -0.0047 C   0  0  0  0  0  0  0  0  0  0  0  0
   -0.6688    1.2711   -0.0155 C   0  0  0  0  0  0  0  0  0  0  0  0
   -1.4325    0.1043   -0.0112 C   0  0  0  0  0  0  0  0  0  0  0  0
   -0.7964   -1.1338    0.0037 C   0  0  0  0  0  0  0  0  0  0  0  0
   -1.5348   -2.2513    0.0077 F   0  0  0  0  0  0  0  0  0  0  0  0
    0.5895   -1.2315    0.0146 C   0  0  0  0  0  0  0  0  0  0  0  0
    1.3472   -0.0641    0.0103 C   0  0  0  0  0  0  0  0  0  0  0  0
    3.0651   -0.1613    0.0236 Cl  0  0  0  0  0  0  0  0  0  0  0  0
    1.3207    2.0963   -0.0080 H   0  0  0  0  0  0  0  0  0  0  0  0
   -1.1565    2.2427   -0.0271 H   0  0  0  0  0  0  0  0  0  0  0  0
   -2.5173    0.1502   -0.0195 H   0  0  0  0  0  0  0  0  0  0  0  0
    1.0585   -2.2093    0.0261 H   0  0  0  0  0  0  0  0  0  0  0  0
  1  2  1  0
  2  3  2  0
  3  4  1  0
  4  5  1  0
  4  6  2  0
  6  7  1  0
  7  8  1  0
  7  1  2  0
  1  9  1  0
  2 10  1  0
  3 11  1  0
  6 12  1  0
M  END
>  <ofe-name>  (134) 
lig_0133

$$$$
lig_0134
     RDKit          3D

 12 12  0  0  0  0  0  0  0  0999 V2000
    1.1490    0.7735    0.0097 C   0  0  0  0  0  0  0  0  0  0  0  0
   -0.0777    1.4403   -0.0356 C   0  0  0  0  0  0  0  0  0  0  0  0
   -1.2644    0.7081   -0.0471 C   0  0  0  0  0  0  0  0  0  0  0  0
   -1.2144   -0.6823   -0.0134 C   0  0  0  0  0  0  0  0  0  0  0  0
   -2.3572   -1.3811   -0.0247 F   0  0  0  0  0  0  0  0  0  0  0  0
   -0.0012   -1.3586    0.0317 C   0  0  0  0  0  0  0  0  0  0  0  0
    1.1805   -0.6224    0.0431 C   0  0  0  0  0  0  0  0  0  0  0  0
    2.8431   -1.5201    0.1042 Br  0  0  0  0  0  0  0  0  0  0  0  0
    2.0717    1.3487    0.0185 H   0  0  0  0  0  0  0  0  0  0  0  0
   -0.1070    2.5268   -0.0617 H   0  0  0  0  0  0  0  0  0  0  0  0
   -2.2265    1.2099   -0.0821 H   0  0  0  0  0  0  0  0  0  0  0  0
    0.0042   -2.4429    0.0572 H   0  0  0  0  0  0  0  0  0  0  0  0
  1  2  1  0
  2  3  2  0
  3  4  1  0
  4  5  1  0
  4  6  2  0
  6  7  1  0
  7  8  1  0
  7  1  2  0
  1  9  1  0
  2 10  1  0
  3 11  1  0
  6 12  1  0
M  END
>  <ofe-name>  (135) 
lig_0134

$$$$
lig_0135
     RDKit          3D

 15 15  0  0  0  0  0  0  0  0999 V2000
    0.0177    1.1581    0.0163 C   0  0  0  0  0  0  0  0  0  0  0  0
   -1.3669    1.2765    0.1669 C   0  0  0  0  0  0  0  0  0  0  0  0
   -2.1575    0.1303    0.2338 C   0  0  0  0  0  0  0  0  0  0  0  0
   -1.5600   -1.1232    0.1499 C   0  0  0  0  0  0  0  0  0  0  0  0
   -2.3249   -2.2207    0.2147 F   0  0  0  0  0  0  0  0  0  0  0  0
   -0.1851   -1.2567    0.0001 C   0  0  0  0  0  0  0  0  0  0  0  0
    0.6124   -0.1099   -0.0675 C   0  0  0  0  0  0  0  0  0  0  0  0
    2.0751   -0.2842   -0.2274 C   0  0  0  0  0  0  0  0  0  0  0  0
    2.6607   -1.3478   -0.3070 O   0  0  0  0  0  0  0  0  0  0  0  0
    2.7374    0.8845   -0.2801 O   0  0  0  0  0  0  0  0  0  0  0  0
    0.6247    2.0595   -0.0346 H   0  0  0  0  0  0  0  0  0  0  0  0
   -1.8258    2.2602    0.2317 H   0  0  0  0  0  0  0  0  0  0  0  0
   -3.2344    0.2044    0.3506 H   0  0  0  0  0  0  0  0  0  0  0  0
    0.2513   -2.2496   -0.0624 H   0  0  0  0  0  0  0  0  0  0  0  0
    3.6753    0.6185   -0.3850 H   0  0  0  0  0  0  0  0  0  0  0  0
  1  2  1  0
  2  3  2  0
  3  4  1  0
  4  5  1  0
  4  6  2  0
  6  7  1  0
  7  8  1  0
  8  9  2  0
  8 10  1  0
  7  1  2  0
  1 11  1  0
  2 12  1  0
  3 13  1  0
  6 14  1  0
 10 15  1  0
M  END
>  <ofe-name>  (136) 
lig_0135

$$$$
lig_0136
     RDKit          3D

 16 16  0  0  0  0  0  0  0  0999 V2000
   -0.1744    0.9943    0.4191 C   0  0  0  0  0  0  0  0  0  0  0  0
   -1.4551    0.8746    0.9673 C   0  0  0  0  0  0  0  0  0  0  0  0
   -2.1878   -0.2951    0.7713 C   0  0  0  0  0  0  0  0  0  0  0  0
   -1.6402   -1.3324    0.0236 C   0  0  0  0  0  0  0  0  0  0  0  0
   -2.3517   -2.4511   -0.1661 F   0  0  0  0  0  0  0  0  0  0  0  0
   -0.3697   -1.2274   -0.5283 C   0  0  0  0  0  0  0  0  0  0  0  0
    0.3762   -0.0622   -0.3222 C   0  0  0  0  0  0  0  0  0  0  0  0
    1.7311    0.0187   -0.9275 C   0  0  0  0  0  0  0  0  0  0  0  0
    2.0587   -0.6962   -1.8654 O   0  0  0  0  0  0  0  0  0  0  0  0
    2.6202    0.8975   -0.3734 N   0  0  0  0  0  0  0  0  0  0  0  0
    0.3676    1.9258    0.5562 H   0  0  0  0  0  0  0  0  0  0  0  0
   -1.8841    1.6950    1.5378 H   0  0  0  0  0  0  0  0  0  0  0  0
   -3.1845   -0.4035    1.1882 H   0  0  0  0  0  0  0  0  0  0  0  0
    0.0301   -2.0522   -1.1116 H   0  0  0  0  0  0  0  0  0  0  0  0
    3.5689    0.8365   -0.7223 H   0  0  0  0  0  0  0  0  0  0  0  0
    2.4946    1.2776    0.5533 H   0  0  0  0  0  0  0  0  0  0  0  0
  1  2  1  0
  2  3  2  0
  3  4  1  0
  4  5  1  0
  4  6  2  0
  6  7  1  0
  7  8  1  0
  8  9  2  0
  8 10  1  0
  7  1  2  0
  1 11  1  0
  2 12  1  0
  3 13  1  0
  6 14  1  0
 10 15  1  0
 10 16  1  0
M  END
>  <ofe-name>  (137) 
lig_0136

$$$$
lig_0137
     RDKit          3D

 13 13  0  0  0  0  0  0  0  0999 V2000
    0.6670    1.0900   -0.4820 C   0  0  0  0  0  0  0  0  0  0  0  0
   -0.6521    1.4944   -0.2567 C   0  0  0  0  0  0  0  0  0  0  0  0
   -1.5914    0.5713    0.1974 C   0  0  0  0  0  0  0  0  0  0  0  0
   -1.2038   -0.7453    0.4188 C   0  0  0  0  0  0  0  0  0  0  0  0
   -2.1087   -1.6331    0.8517 F   0  0  0  0  0  0  0  0  0  0  0  0
    0.1061   -1.1589    0.1980 C   0  0  0  0  0  0  0  0  0  0  0  0
    1.0522   -0.2359   -0.2505 C   0  0  0  0  0  0  0  0  0  0  0  0
    2.7343   -0.7301   -0.5550 S   0  0  0  0  0  0  0  0  0  0  0  0
    1.3917    1.8189   -0.8397 H   0  0  0  0  0  0  0  0  0  0  0  0
   -0.9432    2.5262   -0.4372 H   0  0  0  0  0  0  0  0  0  0  0  0
   -2.6203    0.8669    0.3770 H   0  0  0  0  0  0  0  0  0  0  0  0
    0.3642   -2.1977    0.3759 H   0  0  0  0  0  0  0  0  0  0  0  0
    2.8039   -1.6666    0.4024 H   0  0  0  0  0  0  0  0  0  0  0  0
  1  2  1  0
  2  3  2  0
  3  4  1  0
  4  5  1  0
  4  6  2  0
  6  7  1  0
  7  8  1  0
  7  1  2  0
  1  9  1  0
  2 10  1  0
  3 11  1  0
  6 12  1  0
  8 13  1  0
M  END
>  <ofe-name>  (138) 
lig_0137

$$$$
lig_0138
     RDKit          3D

 16 16  0  0  0  0  0  0  0  0999 V2000
    0.0347    0.8715   -0.7253 C   0  0  0  0  0  0  0  0  0  0  0  0
   -1.2323    1.3979   -0.4578 C   0  0  0  0  0  0  0  0  0  0  0  0
   -2.1002    0.7221    0.3975 C   0  0  0  0  0  0  0  0  0  0  0  0
   -1.6939   -0.4722    0.9801 C   0  0  0  0  0  0  0  0  0  0  0  0
   -2.5273   -1.1199    1.8048 F   0  0  0  0  0  0  0  0  0  0  0  0
   -0.4355   -1.0060    0.7213 C   0  0  0  0  0  0  0  0  0  0  0  0
    0.4449   -0.3392   -0.1430 C   0  0  0  0  0  0  0  0  0  0  0  0
    1.8152   -0.8993   -0.4191 C   0  0  0  0  0  0  0  0  0  0  0  0
    3.0069   -0.4387    0.8669 S   0  0  0  0  0  0  0  0  0  0  0  0
    0.7014    1.4144   -1.3930 H   0  0  0  0  0  0  0  0  0  0  0  0
   -1.5404    2.3348   -0.9152 H   0  0  0  0  0  0  0  0  0  0  0  0
   -3.0866    1.1181    0.6159 H   0  0  0  0  0  0  0  0  0  0  0  0
   -0.1506   -1.9376    1.2023 H   0  0  0  0  0  0  0  0  0  0  0  0
    1.7682   -1.9917   -0.4880 H   0  0  0  0  0  0  0  0  0  0  0  0
    2.1847   -0.5392   -1.3856 H   0  0  0  0  0  0  0  0  0  0  0  0
    2.8108    0.8851    0.7843 H   0  0  0  0  0  0  0  0  0  0  0  0
  1  2  1  0
  2  3  2  0
  3  4  1  0
  4  5  1  0
  4  6  2  0
  6  7  1  0
  7  8  1  0
  8  9  1  0
  7  1  2  0
  1 10  1  0
  2 11  1  0
  3 12  1  0
  6 13  1  0
  8 14  1  0
  8 15  1  0
  9 16  1  0
M  END
>  <ofe-name>  (139) 
lig_0138

$$$$
lig_0139
     RDKit          3D

 24 24  0  0  0  0  0  0  0  0999 V2000
    0.9468    1.2546    0.6081 C   0  0  0  0  0  0  0  0  0  0  0  0
    2.2824    1.3744    1.0090 C   0  0  0  0  0  0  0  0  0  0  0  0
    3.0882    0.2445    1.0828 C   0  0  0  0  0  0  0  0  0  0  0  0
    2.5499   -0.9909    0.7553 C   0  0  0  0  0  0  0  0  0  0  0  0
    3.3221   -2.0838    0.8245 F   0  0  0  0  0  0  0  0  0  0  0  0
    1.2200   -1.1190    0.3548 C   0  0  0  0  0  0  0  0  0  0  0  0
    0.3825    0.0056    0.2712 C   0  0  0  0  0  0  0  0  0  0  0  0
   -1.0899   -0.0859   -0.1651 C   0  0  0  0  0  0  0  0  0  0  0  0
   -1.5530   -1.5220   -0.4991 C   0  0  0  0  0  0  0  0  0  0  0  0
   -2.0004    0.4359    0.9674 C   0  0  0  0  0  0  0  0  0  0  0  0
   -1.3108    0.7711   -1.4301 C   0  0  0  0  0  0  0  0  0  0  0  0
    0.3460    2.1612    0.5621 H   0  0  0  0  0  0  0  0  0  0  0  0
    2.6878    2.3506    1.2621 H   0  0  0  0  0  0  0  0  0  0  0  0
    4.1255    0.3169    1.3913 H   0  0  0  0  0  0  0  0  0  0  0  0
    0.8721   -2.1182    0.1151 H   0  0  0  0  0  0  0  0  0  0  0  0
   -2.6063   -1.5366   -0.8040 H   0  0  0  0  0  0  0  0  0  0  0  0
   -0.9730   -1.9513   -1.3243 H   0  0  0  0  0  0  0  0  0  0  0  0
   -1.4594   -2.1878    0.3668 H   0  0  0  0  0  0  0  0  0  0  0  0
   -1.8458   -0.1333    1.8917 H   0  0  0  0  0  0  0  0  0  0  0  0
   -1.8143    1.4909    1.1961 H   0  0  0  0  0  0  0  0  0  0  0  0
   -3.0588    0.3491    0.6953 H   0  0  0  0  0  0  0  0  0  0  0  0
   -2.3460    0.6956   -1.7829 H   0  0  0  0  0  0  0  0  0  0  0  0
   -0.6555    0.4453   -2.2467 H   0  0  0  0  0  0  0  0  0  0  0  0
   -1.1103    1.8332   -1.2516 H   0  0  0  0  0  0  0  0  0  0  0  0
  1  2  1  0
  2  3  2  0
  3  4  1  0
  4  5  1  0
  4  6  2  0
  6  7  1  0
  7  8  1  0
  8  9  1  0
  8 10  1  0
  8 11  1  0
  7  1  2  0
  1 12  1  0
  2 13  1  0
  3 14  1  0
  6 15  1  0
  9 16  1  0
  9 17  1  0
  9 18  1  0
 10 19  1  0
 10 20  1  0
 10 21  1  0
 11 22  1  0
 11 23  1  0
 11 24  1  0
M  END
>  <ofe-name>  (140) 
lig_0139

$$$$
lig_0140
     RDKit          3D

 16 16  0  0  0  0  0  0  0  0999 V2000
   -0.0564    0.9018    0.2432 C   0  0  0  0  0  0  0  0  0  0  0  0
    1.2715    1.2914    0.4547 C   0  0  0  0  0  0  0  0  0  0  0  0
    2.3042    0.3722    0.2835 C   0  0  0  0  0  0  0  0  0  0  0  0
    2.0011   -0.9287   -0.0976 C   0  0  0  0  0  0  0  0  0  0  0  0
    2.9926   -1.8142   -0.2628 F   0  0  0  0  0  0  0  0  0  0  0  0
    0.6857   -1.3249   -0.3099 C   0  0  0  0  0  0  0  0  0  0  0  0
   -0.3543   -0.4093   -0.1403 C   0  0  0  0  0  0  0  0  0  0  0  0
   -1.6035   -0.9133   -0.3770 O   0  0  0  0  0  0  0  0  0  0  0  0
   -2.6994   -0.0210   -0.2181 C   0  0  0  0  0  0  0  0  0  0  0  0
   -0.8336    1.6456    0.3863 H   0  0  0  0  0  0  0  0  0  0  0  0
    1.4972    2.3123    0.7528 H   0  0  0  0  0  0  0  0  0  0  0  0
    3.3384    0.6590    0.4436 H   0  0  0  0  0  0  0  0  0  0  0  0
    0.4768   -2.3475   -0.6072 H   0  0  0  0  0  0  0  0  0  0  0  0
   -3.6163   -0.5745   -0.4423 H   0  0  0  0  0  0  0  0  0  0  0  0
   -2.6337    0.8142   -0.9233 H   0  0  0  0  0  0  0  0  0  0  0  0
   -2.7704    0.3370    0.8143 H   0  0  0  0  0  0  0  0  0  0  0  0
  1  2  1  0
  2  3  2  0
  3  4  1  0
  4  5  1  0
  4  6  2  0
  6  7  1  0
  7  8  1  0
  8  9  1  0
  7  1  2  0
  1 10  1  0
  2 11  1  0
  3 12  1  0
  6 13  1  0
  9 14  1  0
  9 15  1  0
  9 16  1  0
M  END
>  <ofe-name>  (141) 
lig_0140

$$$$
lig_0141
     RDKit          3D

 19 19  0  0  0  0  0  0  0  0999 V2000
   -0.8488    0.9724    0.0851 C   0  0  0  0  0  0  0  0  0  0  0  0
   -2.2392    1.1343    0.1030 C   0  0  0  0  0  0  0  0  0  0  0  0
   -3.0726    0.0218    0.0112 C   0  0  0  0  0  0  0  0  0  0  0  0
   -2.5093   -1.2432   -0.0977 C   0  0  0  0  0  0  0  0  0  0  0  0
   -3.3089   -2.3144   -0.1861 F   0  0  0  0  0  0  0  0  0  0  0  0
   -1.1300   -1.4139   -0.1164 C   0  0  0  0  0  0  0  0  0  0  0  0
   -0.2886   -0.3037   -0.0248 C   0  0  0  0  0  0  0  0  0  0  0  0
    1.0470   -0.5961   -0.0536 O   0  0  0  0  0  0  0  0  0  0  0  0
    1.9559    0.4996    0.0365 C   0  0  0  0  0  0  0  0  0  0  0  0
    3.3673   -0.0575   -0.0150 C   0  0  0  0  0  0  0  0  0  0  0  0
   -0.2323    1.8625    0.1587 H   0  0  0  0  0  0  0  0  0  0  0  0
   -2.6691    2.1292    0.1886 H   0  0  0  0  0  0  0  0  0  0  0  0
   -4.1522    0.1311    0.0237 H   0  0  0  0  0  0  0  0  0  0  0  0
   -0.7162   -2.4135   -0.2024 H   0  0  0  0  0  0  0  0  0  0  0  0
    1.8162    1.0328    0.9840 H   0  0  0  0  0  0  0  0  0  0  0  0
    1.8108    1.1846   -0.8068 H   0  0  0  0  0  0  0  0  0  0  0  0
    3.5293   -0.6117   -0.9454 H   0  0  0  0  0  0  0  0  0  0  0  0
    3.5346   -0.7603    0.8079 H   0  0  0  0  0  0  0  0  0  0  0  0
    4.1063    0.7460    0.0509 H   0  0  0  0  0  0  0  0  0  0  0  0
  1  2  1  0
  2  3  2  0
  3  4  1  0
  4  5  1  0
  4  6  2  0
  6  7  1  0
  7  8  1  0
  8  9  1  0
  9 10  1  0
  7  1  2  0
  1 11  1  0
  2 12  1  0
  3 13  1  0
  6 14  1  0
  9 15  1  0
  9 16  1  0
 10 17  1  0
 10 18  1  0
 10 19  1  0
M  END
>  <ofe-name>  (142) 
lig_0141

$$$$
lig_0142
     RDKit          3D

 19 19  0  0  0  0  0  0  0  0999 V2000
   -1.2718   -1.1632    0.0392 C   0  0  0  0  0  0  0  0  0  0  0  0
   -2.6399   -0.8789    0.0976 C   0  0  0  0  0  0  0  0  0  0  0  0
   -3.0683    0.4433    0.1539 C   0  0  0  0  0  0  0  0  0  0  0  0
   -2.1259    1.4643    0.1510 C   0  0  0  0  0  0  0  0  0  0  0  0
   -2.5417    2.7370    0.2045 F   0  0  0  0  0  0  0  0  0  0  0  0
   -0.7610    1.1915    0.0931 C   0  0  0  0  0  0  0  0  0  0  0  0
   -0.3204   -0.1309    0.0370 C   0  0  0  0  0  0  0  0  0  0  0  0
    1.0372   -0.5098   -0.0250 N   0  0  0  0  0  0  0  0  0  0  0  0
    2.1425    0.3220   -0.0287 C   0  0  0  0  0  0  0  0  0  0  0  0
    2.1444    1.5453    0.0427 O   0  0  0  0  0  0  0  0  0  0  0  0
    3.4375   -0.4485   -0.1006 C   0  0  0  0  0  0  0  0  0  0  0  0
   -0.9624   -2.2047   -0.0041 H   0  0  0  0  0  0  0  0  0  0  0  0
   -3.3663   -1.6874    0.0991 H   0  0  0  0  0  0  0  0  0  0  0  0
   -4.1247    0.6873    0.1997 H   0  0  0  0  0  0  0  0  0  0  0  0
   -0.0799    2.0345    0.0933 H   0  0  0  0  0  0  0  0  0  0  0  0
    1.2184   -1.5049   -0.0628 H   0  0  0  0  0  0  0  0  0  0  0  0
    4.2195    0.1938   -0.5158 H   0  0  0  0  0  0  0  0  0  0  0  0
    3.7250   -0.7678    0.9045 H   0  0  0  0  0  0  0  0  0  0  0  0
    3.3376   -1.3228   -0.7503 H   0  0  0  0  0  0  0  0  0  0  0  0
  1  2  1  0
  2  3  2  0
  3  4  1  0
  4  5  1  0
  4  6  2  0
  6  7  1  0
  7  8  1  0
  8  9  1  0
  9 10  2  0
  9 11  1  0
  7  1  2  0
  1 12  1  0
  2 13  1  0
  3 14  1  0
  6 15  1  0
  8 16  1  0
 11 17  1  0
 11 18  1  0
 11 19  1  0
M  END
>  <ofe-name>  (143) 
lig_0142

$$$$
lig_0143
     RDKit          3D

 22 23  0  0  0  0  0  0  0  0999 V2000
   -1.4169    0.8121   -1.0009 C   0  0  0  0  0  0  0  0  0  0  0  0
   -2.8060    0.7312   -1.1472 C   0  0  0  0  0  0  0  0  0  0  0  0
   -3.5269   -0.2035   -0.4099 C   0  0  0  0  0  0  0  0  0  0  0  0
   -2.8534   -1.0467    0.4642 C   0  0  0  0  0  0  0  0  0  0  0  0
   -3.5462   -1.9458    1.1759 F   0  0  0  0  0  0  0  0  0  0  0  0
   -1.4715   -0.9734    0.6151 C   0  0  0  0  0  0  0  0  0  0  0  0
   -0.7250   -0.0380   -0.1180 C   0  0  0  0  0  0  0  0  0  0  0  0
    0.7371    0.0509    0.0318 C   0  0  0  0  0  0  0  0  0  0  0  0
    1.3620    1.2744    0.3262 C   0  0  0  0  0  0  0  0  0  0  0  0
    2.7497    1.3595    0.4694 C   0  0  0  0  0  0  0  0  0  0  0  0
    3.5372    0.2210    0.3194 C   0  0  0  0  0  0  0  0  0  0  0  0
    2.9386   -1.0016    0.0273 C   0  0  0  0  0  0  0  0  0  0  0  0
    1.5507   -1.0853   -0.1145 C   0  0  0  0  0  0  0  0  0  0  0  0
   -0.8688    1.5415   -1.5953 H   0  0  0  0  0  0  0  0  0  0  0  0
   -3.3193    1.3954   -1.8377 H   0  0  0  0  0  0  0  0  0  0  0  0
   -4.6046   -0.2810   -0.5099 H   0  0  0  0  0  0  0  0  0  0  0  0
   -0.9882   -1.6454    1.3187 H   0  0  0  0  0  0  0  0  0  0  0  0
    0.7656    2.1747    0.4598 H   0  0  0  0  0  0  0  0  0  0  0  0
    3.2132    2.3149    0.7011 H   0  0  0  0  0  0  0  0  0  0  0  0
    4.6163    0.2865    0.4306 H   0  0  0  0  0  0  0  0  0  0  0  0
    3.5502   -1.8920   -0.0930 H   0  0  0  0  0  0  0  0  0  0  0  0
    1.1060   -2.0494   -0.3537 H   0  0  0  0  0  0  0  0  0  0  0  0
  1  2  1  0
  2  3  2  0
  3  4  1  0
  4  5  1  0
  4  6  2  0
  6  7  1  0
  7  8  1  0
  8  9  2  0
  9 10  1  0
 10 11  2  0
 11 12  1  0
 12 13  2  0
  7  1  2  0
 13  8  1  0
  1 14  1  0
  2 15  1  0
  3 16  1  0
  6 17  1  0
  9 18  1  0
 10 19  1  0
 11 20  1  0
 12 21  1  0
 13 22  1  0
M  END
>  <ofe-name>  (144) 
lig_0143

$$$$
lig_0144
     RDKit          3D

 12 12  0  0  0  0  0  0  0  0999 V2000
    0.7635    1.1979    0.0623 C   0  0  0  0  0  0  0  0  0  0  0  0
   -0.6270    1.3073    0.0138 C   0  0  0  0  0  0  0  0  0  0  0  0
   -1.4125    0.1553   -0.0479 C   0  0  0  0  0  0  0  0  0  0  0  0
   -0.8035   -1.1002   -0.0610 C   0  0  0  0  0  0  0  0  0  0  0  0
   -1.7769   -2.5174   -0.1372 Cl  0  0  0  0  0  0  0  0  0  0  0  0
    0.5838   -1.2172   -0.0129 C   0  0  0  0  0  0  0  0  0  0  0  0
    1.3614   -0.0630    0.0487 C   0  0  0  0  0  0  0  0  0  0  0  0
    3.0765   -0.1921    0.1086 Cl  0  0  0  0  0  0  0  0  0  0  0  0
    1.3742    2.0960    0.1104 H   0  0  0  0  0  0  0  0  0  0  0  0
   -1.0973    2.2877    0.0242 H   0  0  0  0  0  0  0  0  0  0  0  0
   -2.4956    0.2420   -0.0856 H   0  0  0  0  0  0  0  0  0  0  0  0
    1.0535   -2.1964   -0.0233 H   0  0  0  0  0  0  0  0  0  0  0  0
  1  2  2  0
  2  3  1  0
  3  4  2  0
  4  5  1  0
  4  6  1  0
  6  7  2  0
  7  8  1  0
  7  1  1  0
  1  9  1  0
  2 10  1  0
  3 11  1  0
  6 12  1  0
M  END
>  <ofe-name>  (145) 
lig_0144

$$$$
lig_0145
     RDKit          3D

 12 12  0  0  0  0  0  0  0  0999 V2000
    1.1118    0.8707   -0.4496 C   0  0  0  0  0  0  0  0  0  0  0  0
   -0.1549    1.4479   -0.3482 C   0  0  0  0  0  0  0  0  0  0  0  0
   -1.2837    0.6343   -0.2397 C   0  0  0  0  0  0  0  0  0  0  0  0
   -1.1405   -0.7536   -0.2331 C   0  0  0  0  0  0  0  0  0  0  0  0
   -2.5355   -1.7525   -0.0991 Cl  0  0  0  0  0  0  0  0  0  0  0  0
    0.1204   -1.3380   -0.3340 C   0  0  0  0  0  0  0  0  0  0  0  0
    1.2426   -0.5187   -0.4420 C   0  0  0  0  0  0  0  0  0  0  0  0
    2.9604   -1.2968   -0.5795 Br  0  0  0  0  0  0  0  0  0  0  0  0
    1.9875    1.5096   -0.5339 H   0  0  0  0  0  0  0  0  0  0  0  0
   -0.2622    2.5300   -0.3536 H   0  0  0  0  0  0  0  0  0  0  0  0
   -2.2692    1.0863   -0.1608 H   0  0  0  0  0  0  0  0  0  0  0  0
    0.2233   -2.4193   -0.3281 H   0  0  0  0  0  0  0  0  0  0  0  0
  1  2  1  0
  2  3  2  0
  3  4  1  0
  4  5  1  0
  4  6  2  0
  6  7  1  0
  7  8  1  0
  7  1  2  0
  1  9  1  0
  2 10  1  0
  3 11  1  0
  6 12  1  0
M  END
>  <ofe-name>  (146) 
lig_0145

$$$$
lig_0146
     RDKit          3D

 15 15  0  0  0  0  0  0  0  0999 V2000
   -0.0702   -1.3085   -0.1368 C   0  0  0  0  0  0  0  0  0  0  0  0
   -1.4601   -1.3236   -0.0065 C   0  0  0  0  0  0  0  0  0  0  0  0
   -2.1518   -0.1284    0.1902 C   0  0  0  0  0  0  0  0  0  0  0  0
   -1.4517    1.0765    0.2559 C   0  0  0  0  0  0  0  0  0  0  0  0
   -2.3121    2.5472    0.4989 Cl  0  0  0  0  0  0  0  0  0  0  0  0
   -0.0641    1.1014    0.1269 C   0  0  0  0  0  0  0  0  0  0  0  0
    0.6320   -0.0968   -0.0706 C   0  0  0  0  0  0  0  0  0  0  0  0
    2.1068   -0.1329   -0.2146 C   0  0  0  0  0  0  0  0  0  0  0  0
    2.7810   -1.1308   -0.3881 O   0  0  0  0  0  0  0  0  0  0  0  0
    2.6679    1.0859   -0.1342 O   0  0  0  0  0  0  0  0  0  0  0  0
    0.4648   -2.2445   -0.2903 H   0  0  0  0  0  0  0  0  0  0  0  0
   -2.0016   -2.2652   -0.0583 H   0  0  0  0  0  0  0  0  0  0  0  0
   -3.2342   -0.1420    0.2915 H   0  0  0  0  0  0  0  0  0  0  0  0
    0.4666    2.0483    0.1803 H   0  0  0  0  0  0  0  0  0  0  0  0
    3.6267    0.9133   -0.2442 H   0  0  0  0  0  0  0  0  0  0  0  0
  1  2  1  0
  2  3  2  0
  3  4  1  0
  4  5  1  0
  4  6  2  0
  6  7  1  0
  7  8  1  0
  8  9  2  0
  8 10  1  0
  7  1  2  0
  1 11  1  0
  2 12  1  0
  3 13  1  0
  6 14  1  0
 10 15  1  0
M  END
>  <ofe-name>  (147) 
lig_0146

$$$$
lig_0147
     RDKit          3D

 16 16  0  0  0  0  0  0  0  0999 V2000
   -0.0907   -0.8058   -0.7577 C   0  0  0  0  0  0  0  0  0  0  0  0
    1.2464   -1.1544   -0.9634 C   0  0  0  0  0  0  0  0  0  0  0  0
    2.2609   -0.4205   -0.3478 C   0  0  0  0  0  0  0  0  0  0  0  0
    1.9370    0.6649    0.4656 C   0  0  0  0  0  0  0  0  0  0  0  0
    3.1935    1.5701    1.2157 Cl  0  0  0  0  0  0  0  0  0  0  0  0
    0.6068    1.0207    0.6755 C   0  0  0  0  0  0  0  0  0  0  0  0
   -0.4145    0.2772    0.0716 C   0  0  0  0  0  0  0  0  0  0  0  0
   -1.8212    0.6892    0.3181 C   0  0  0  0  0  0  0  0  0  0  0  0
   -2.1019    1.8191    0.6960 O   0  0  0  0  0  0  0  0  0  0  0  0
   -2.7963   -0.2536    0.1453 N   0  0  0  0  0  0  0  0  0  0  0  0
   -0.8635   -1.3704   -1.2717 H   0  0  0  0  0  0  0  0  0  0  0  0
    1.4988   -1.9914   -1.6104 H   0  0  0  0  0  0  0  0  0  0  0  0
    3.3005   -0.6933   -0.5117 H   0  0  0  0  0  0  0  0  0  0  0  0
    0.3609    1.8715    1.3075 H   0  0  0  0  0  0  0  0  0  0  0  0
   -3.7248    0.0188    0.4440 H   0  0  0  0  0  0  0  0  0  0  0  0
   -2.5919   -1.2420    0.1233 H   0  0  0  0  0  0  0  0  0  0  0  0
  1  2  1  0
  2  3  2  0
  3  4  1  0
  4  5  1  0
  4  6  2  0
  6  7  1  0
  7  8  1  0
  8  9  2  0
  8 10  1  0
  7  1  2  0
  1 11  1  0
  2 12  1  0
  3 13  1  0
  6 14  1  0
 10 15  1  0
 10 16  1  0
M  END
>  <ofe-name>  (148) 
lig_0147

$$$$
lig_0148
     RDKit          3D

 13 13  0  0  0  0  0  0  0  0999 V2000
    0.4946    1.2114   -0.4752 C   0  0  0  0  0  0  0  0  0  0  0  0
   -0.8532    1.4123   -0.1687 C   0  0  0  0  0  0  0  0  0  0  0  0
   -1.6285    0.3473    0.2881 C   0  0  0  0  0  0  0  0  0  0  0  0
   -1.0520   -0.9134    0.4331 C   0  0  0  0  0  0  0  0  0  0  0  0
   -2.0110   -2.2289    0.9925 Cl  0  0  0  0  0  0  0  0  0  0  0  0
    0.2935   -1.1201    0.1286 C   0  0  0  0  0  0  0  0  0  0  0  0
    1.0739   -0.0527   -0.3227 C   0  0  0  0  0  0  0  0  0  0  0  0
    2.7904   -0.2885   -0.7296 S   0  0  0  0  0  0  0  0  0  0  0  0
    1.0885    2.0497   -0.8338 H   0  0  0  0  0  0  0  0  0  0  0  0
   -1.2966    2.3978   -0.2879 H   0  0  0  0  0  0  0  0  0  0  0  0
   -2.6773    0.5050    0.5255 H   0  0  0  0  0  0  0  0  0  0  0  0
    0.7235   -2.1116    0.2401 H   0  0  0  0  0  0  0  0  0  0  0  0
    3.0541   -1.2083    0.2100 H   0  0  0  0  0  0  0  0  0  0  0  0
  1  2  1  0
  2  3  2  0
  3  4  1  0
  4  5  1  0
  4  6  2  0
  6  7  1  0
  7  8  1  0
  7  1  2  0
  1  9  1  0
  2 10  1  0
  3 11  1  0
  6 12  1  0
  8 13  1  0
M  END
>  <ofe-name>  (149) 
lig_0148

$$$$
lig_0149
     RDKit          3D

 16 16  0  0  0  0  0  0  0  0999 V2000
   -0.1923    1.1812   -0.5297 C   0  0  0  0  0  0  0  0  0  0  0  0
   -1.5470    1.2617   -0.2006 C   0  0  0  0  0  0  0  0  0  0  0  0
   -2.2034    0.1521    0.3305 C   0  0  0  0  0  0  0  0  0  0  0  0
   -1.5009   -1.0335    0.5328 C   0  0  0  0  0  0  0  0  0  0  0  0
   -2.3082   -2.4025    1.1929 Cl  0  0  0  0  0  0  0  0  0  0  0  0
   -0.1471   -1.1207    0.2061 C   0  0  0  0  0  0  0  0  0  0  0  0
    0.5212   -0.0118   -0.3354 C   0  0  0  0  0  0  0  0  0  0  0  0
    1.9861   -0.0918   -0.6768 C   0  0  0  0  0  0  0  0  0  0  0  0
    3.0287    0.5534    0.6584 S   0  0  0  0  0  0  0  0  0  0  0  0
    0.3085    2.0592   -0.9348 H   0  0  0  0  0  0  0  0  0  0  0  0
   -2.0890    2.1916   -0.3550 H   0  0  0  0  0  0  0  0  0  0  0  0
   -3.2572    0.2194    0.5866 H   0  0  0  0  0  0  0  0  0  0  0  0
    0.3865   -2.0533    0.3742 H   0  0  0  0  0  0  0  0  0  0  0  0
    2.1893    0.4729   -1.5934 H   0  0  0  0  0  0  0  0  0  0  0  0
    2.2738   -1.1298   -0.8771 H   0  0  0  0  0  0  0  0  0  0  0  0
    2.5511   -0.2482    1.6213 H   0  0  0  0  0  0  0  0  0  0  0  0
  1  2  1  0
  2  3  2  0
  3  4  1  0
  4  5  1  0
  4  6  2  0
  6  7  1  0
  7  8  1  0
  8  9  1  0
  7  1  2  0
  1 10  1  0
  2 11  1  0
  3 12  1  0
  6 13  1  0
  8 14  1  0
  8 15  1  0
  9 16  1  0
M  END
>  <ofe-name>  (150) 
lig_0149

$$$$
lig_0150
     RDKit          3D

 24 24  0  0  0  0  0  0  0  0999 V2000
    1.0256   -0.7185    1.1298 C   0  0  0  0  0  0  0  0  0  0  0  0
    2.4064   -0.6132    1.3352 C   0  0  0  0  0  0  0  0  0  0  0  0
    3.1772    0.2066    0.5165 C   0  0  0  0  0  0  0  0  0  0  0  0
    2.5626    0.9189   -0.5060 C   0  0  0  0  0  0  0  0  0  0  0  0
    3.5061    1.9361   -1.5250 Cl  0  0  0  0  0  0  0  0  0  0  0  0
    1.1849    0.8159   -0.7136 C   0  0  0  0  0  0  0  0  0  0  0  0
    0.3815   -0.0077    0.1018 C   0  0  0  0  0  0  0  0  0  0  0  0
   -1.1337   -0.1007   -0.1512 C   0  0  0  0  0  0  0  0  0  0  0  0
   -1.3900   -0.6305   -1.5786 C   0  0  0  0  0  0  0  0  0  0  0  0
   -1.8734   -1.0430    0.8253 C   0  0  0  0  0  0  0  0  0  0  0  0
   -1.7711    1.2981   -0.0062 C   0  0  0  0  0  0  0  0  0  0  0  0
    0.4723   -1.3730    1.7984 H   0  0  0  0  0  0  0  0  0  0  0  0
    2.8777   -1.1748    2.1382 H   0  0  0  0  0  0  0  0  0  0  0  0
    4.2480    0.2848    0.6801 H   0  0  0  0  0  0  0  0  0  0  0  0
    0.7386    1.3882   -1.5236 H   0  0  0  0  0  0  0  0  0  0  0  0
   -0.9926    0.0409   -2.3477 H   0  0  0  0  0  0  0  0  0  0  0  0
   -2.4635   -0.7398   -1.7728 H   0  0  0  0  0  0  0  0  0  0  0  0
   -0.9229   -1.6116   -1.7250 H   0  0  0  0  0  0  0  0  0  0  0  0
   -1.4991   -2.0710    0.7554 H   0  0  0  0  0  0  0  0  0  0  0  0
   -2.9473   -1.0759    0.6053 H   0  0  0  0  0  0  0  0  0  0  0  0
   -1.7679   -0.7107    1.8646 H   0  0  0  0  0  0  0  0  0  0  0  0
   -1.3816    2.0096   -0.7425 H   0  0  0  0  0  0  0  0  0  0  0  0
   -1.5805    1.7171    0.9890 H   0  0  0  0  0  0  0  0  0  0  0  0
   -2.8574    1.2540   -0.1472 H   0  0  0  0  0  0  0  0  0  0  0  0
  1  2  1  0
  2  3  2  0
  3  4  1  0
  4  5  1  0
  4  6  2  0
  6  7  1  0
  7  8  1  0
  8  9  1  0
  8 10  1  0
  8 11  1  0
  7  1  2  0
  1 12  1  0
  2 13  1  0
  3 14  1  0
  6 15  1  0
  9 16  1  0
  9 17  1  0
  9 18  1  0
 10 19  1  0
 10 20  1  0
 10 21  1  0
 11 22  1  0
 11 23  1  0
 11 24  1  0
M  END
>  <ofe-name>  (151) 
lig_0150

$$$$
lig_0151
     RDKit          3D

 16 16  0  0  0  0  0  0  0  0999 V2000
   -0.0406    0.9146    0.2628 C   0  0  0  0  0  0  0  0  0  0  0  0
    1.3044    1.2760    0.3924 C   0  0  0  0  0  0  0  0  0  0  0  0
    2.3082    0.3413    0.1421 C   0  0  0  0  0  0  0  0  0  0  0  0
    1.9626   -0.9532   -0.2375 C   0  0  0  0  0  0  0  0  0  0  0  0
    3.1986   -2.1100   -0.5474 Cl  0  0  0  0  0  0  0  0  0  0  0  0
    0.6237   -1.3172   -0.3678 C   0  0  0  0  0  0  0  0  0  0  0  0
   -0.3861   -0.3842   -0.1180 C   0  0  0  0  0  0  0  0  0  0  0  0
   -1.6573   -0.8625   -0.2800 O   0  0  0  0  0  0  0  0  0  0  0  0
   -2.7241    0.0463   -0.0383 C   0  0  0  0  0  0  0  0  0  0  0  0
   -0.7927    1.6700    0.4662 H   0  0  0  0  0  0  0  0  0  0  0  0
    1.5681    2.2883    0.6892 H   0  0  0  0  0  0  0  0  0  0  0  0
    3.3518    0.6264    0.2440 H   0  0  0  0  0  0  0  0  0  0  0  0
    0.3576   -2.3283   -0.6642 H   0  0  0  0  0  0  0  0  0  0  0  0
   -3.6636   -0.4879   -0.2100 H   0  0  0  0  0  0  0  0  0  0  0  0
   -2.6888    0.8904   -0.7348 H   0  0  0  0  0  0  0  0  0  0  0  0
   -2.7218    0.3901    1.0013 H   0  0  0  0  0  0  0  0  0  0  0  0
  1  2  1  0
  2  3  2  0
  3  4  1  0
  4  5  1  0
  4  6  2  0
  6  7  1  0
  7  8  1  0
  8  9  1  0
  7  1  2  0
  1 10  1  0
  2 11  1  0
  3 12  1  0
  6 13  1  0
  9 14  1  0
  9 15  1  0
  9 16  1  0
M  END
>  <ofe-name>  (152) 
lig_0151

$$$$
lig_0152
     RDKit          3D

 19 19  0  0  0  0  0  0  0  0999 V2000
   -0.7376   -1.0378    0.4034 C   0  0  0  0  0  0  0  0  0  0  0  0
   -2.1033   -1.3098    0.5355 C   0  0  0  0  0  0  0  0  0  0  0  0
   -3.0392   -0.2878    0.3826 C   0  0  0  0  0  0  0  0  0  0  0  0
   -2.6052    1.0043    0.0976 C   0  0  0  0  0  0  0  0  0  0  0  0
   -3.7571    2.2688   -0.0919 Cl  0  0  0  0  0  0  0  0  0  0  0  0
   -1.2454    1.2794   -0.0348 C   0  0  0  0  0  0  0  0  0  0  0  0
   -0.3035    0.2586    0.1176 C   0  0  0  0  0  0  0  0  0  0  0  0
    0.9963    0.6555   -0.0360 O   0  0  0  0  0  0  0  0  0  0  0  0
    2.0045   -0.3434    0.1082 C   0  0  0  0  0  0  0  0  0  0  0  0
    3.3539    0.3197   -0.1019 C   0  0  0  0  0  0  0  0  0  0  0  0
   -0.0404   -1.8597    0.5295 H   0  0  0  0  0  0  0  0  0  0  0  0
   -2.4360   -2.3208    0.7581 H   0  0  0  0  0  0  0  0  0  0  0  0
   -4.0991   -0.5037    0.4861 H   0  0  0  0  0  0  0  0  0  0  0  0
   -0.9102    2.2889   -0.2572 H   0  0  0  0  0  0  0  0  0  0  0  0
    1.8713   -1.1296   -0.6439 H   0  0  0  0  0  0  0  0  0  0  0  0
    1.9709   -0.7751    1.1151 H   0  0  0  0  0  0  0  0  0  0  0  0
    3.5062    1.1231    0.6265 H   0  0  0  0  0  0  0  0  0  0  0  0
    3.4087    0.7761   -1.0958 H   0  0  0  0  0  0  0  0  0  0  0  0
    4.1652   -0.4067   -0.0014 H   0  0  0  0  0  0  0  0  0  0  0  0
  1  2  1  0
  2  3  2  0
  3  4  1  0
  4  5  1  0
  4  6  2  0
  6  7  1  0
  7  8  1  0
  8  9  1  0
  9 10  1  0
  7  1  2  0
  1 11  1  0
  2 12  1  0
  3 13  1  0
  6 14  1  0
  9 15  1  0
  9 16  1  0
 10 17  1  0
 10 18  1  0
 10 19  1  0
M  END
>  <ofe-name>  (153) 
lig_0152

$$$$
lig_0153
     RDKit          3D

 19 19  0  0  0  0  0  0  0  0999 V2000
    0.9909   -0.1934   -1.0200 C   0  0  0  0  0  0  0  0  0  0  0  0
    2.3840   -0.0641   -1.0470 C   0  0  0  0  0  0  0  0  0  0  0  0
    3.0731    0.3345    0.0958 C   0  0  0  0  0  0  0  0  0  0  0  0
    2.3634    0.6025    1.2620 C   0  0  0  0  0  0  0  0  0  0  0  0
    3.2062    1.0963    2.6796 Cl  0  0  0  0  0  0  0  0  0  0  0  0
    0.9734    0.4750    1.2942 C   0  0  0  0  0  0  0  0  0  0  0  0
    0.2738    0.0740    0.1489 C   0  0  0  0  0  0  0  0  0  0  0  0
   -1.1293   -0.0324    0.2554 N   0  0  0  0  0  0  0  0  0  0  0  0
   -2.0221   -0.4165   -0.7294 C   0  0  0  0  0  0  0  0  0  0  0  0
   -1.7550   -0.7570   -1.8760 O   0  0  0  0  0  0  0  0  0  0  0  0
   -3.4486   -0.4136   -0.2384 C   0  0  0  0  0  0  0  0  0  0  0  0
    0.4958   -0.5059   -1.9348 H   0  0  0  0  0  0  0  0  0  0  0  0
    2.9266   -0.2764   -1.9653 H   0  0  0  0  0  0  0  0  0  0  0  0
    4.1547    0.4332    0.0693 H   0  0  0  0  0  0  0  0  0  0  0  0
    0.4459    0.6910    2.2188 H   0  0  0  0  0  0  0  0  0  0  0  0
   -1.5236    0.1916    1.1606 H   0  0  0  0  0  0  0  0  0  0  0  0
   -4.1261   -0.3157   -1.0916 H   0  0  0  0  0  0  0  0  0  0  0  0
   -3.6542   -1.3522    0.2827 H   0  0  0  0  0  0  0  0  0  0  0  0
   -3.6288    0.4292    0.4352 H   0  0  0  0  0  0  0  0  0  0  0  0
  1  2  1  0
  2  3  2  0
  3  4  1  0
  4  5  1  0
  4  6  2  0
  6  7  1  0
  7  8  1  0
  8  9  1  0
  9 10  2  0
  9 11  1  0
  7  1  2  0
  1 12  1  0
  2 13  1  0
  3 14  1  0
  6 15  1  0
  8 16  1  0
 11 17  1  0
 11 18  1  0
 11 19  1  0
M  END
>  <ofe-name>  (154) 
lig_0153

$$$$
lig_0154
     RDKit          3D

 22 23  0  0  0  0  0  0  0  0999 V2000
   -1.3346    1.3128   -0.3107 C   0  0  0  0  0  0  0  0  0  0  0  0
   -2.7256    1.4236   -0.3919 C   0  0  0  0  0  0  0  0  0  0  0  0
   -3.5247    0.2972   -0.2103 C   0  0  0  0  0  0  0  0  0  0  0  0
   -2.9284   -0.9334    0.0516 C   0  0  0  0  0  0  0  0  0  0  0  0
   -3.9133   -2.3274    0.2747 Cl  0  0  0  0  0  0  0  0  0  0  0  0
   -1.5397   -1.0470    0.1340 C   0  0  0  0  0  0  0  0  0  0  0  0
   -0.7171    0.0775   -0.0464 C   0  0  0  0  0  0  0  0  0  0  0  0
    0.7484   -0.0343    0.0392 C   0  0  0  0  0  0  0  0  0  0  0  0
    1.3666   -0.6076    1.1632 C   0  0  0  0  0  0  0  0  0  0  0  0
    2.7577   -0.7140    1.2451 C   0  0  0  0  0  0  0  0  0  0  0  0
    3.5552   -0.2494    0.2025 C   0  0  0  0  0  0  0  0  0  0  0  0
    2.9632    0.3216   -0.9209 C   0  0  0  0  0  0  0  0  0  0  0  0
    1.5719    0.4283   -1.0009 C   0  0  0  0  0  0  0  0  0  0  0  0
   -0.7281    2.2074   -0.4437 H   0  0  0  0  0  0  0  0  0  0  0  0
   -3.1825    2.3892   -0.5935 H   0  0  0  0  0  0  0  0  0  0  0  0
   -4.6059    0.3845   -0.2734 H   0  0  0  0  0  0  0  0  0  0  0  0
   -1.0937   -2.0200    0.3282 H   0  0  0  0  0  0  0  0  0  0  0  0
    0.7640   -0.9676    1.9948 H   0  0  0  0  0  0  0  0  0  0  0  0
    3.2164   -1.1581    2.1248 H   0  0  0  0  0  0  0  0  0  0  0  0
    4.6370   -0.3327    0.2654 H   0  0  0  0  0  0  0  0  0  0  0  0
    3.5824    0.6821   -1.7382 H   0  0  0  0  0  0  0  0  0  0  0  0
    1.1306    0.8672   -1.8936 H   0  0  0  0  0  0  0  0  0  0  0  0
  1  2  1  0
  2  3  2  0
  3  4  1  0
  4  5  1  0
  4  6  2  0
  6  7  1  0
  7  8  1  0
  8  9  2  0
  9 10  1  0
 10 11  2  0
 11 12  1  0
 12 13  2  0
  7  1  2  0
 13  8  1  0
  1 14  1  0
  2 15  1  0
  3 16  1  0
  6 17  1  0
  9 18  1  0
 10 19  1  0
 11 20  1  0
 12 21  1  0
 13 22  1  0
M  END
>  <ofe-name>  (155) 
lig_0154

$$$$
lig_0155
     RDKit          3D

 12 12  0  0  0  0  0  0  0  0999 V2000
    1.1358    0.8659    0.0684 C   0  0  0  0  0  0  0  0  0  0  0  0
   -0.1291    1.4556    0.0559 C   0  0  0  0  0  0  0  0  0  0  0  0
   -1.2707    0.6554   -0.0100 C   0  0  0  0  0  0  0  0  0  0  0  0
   -1.1410   -0.7329   -0.0631 C   0  0  0  0  0  0  0  0  0  0  0  0
   -2.6900   -1.8138   -0.1522 Br  0  0  0  0  0  0  0  0  0  0  0  0
    0.1180   -1.3306   -0.0511 C   0  0  0  0  0  0  0  0  0  0  0  0
    1.2525   -0.5235    0.0149 C   0  0  0  0  0  0  0  0  0  0  0  0
    2.9679   -1.3189    0.0320 Br  0  0  0  0  0  0  0  0  0  0  0  0
    2.0207    1.4952    0.1198 H   0  0  0  0  0  0  0  0  0  0  0  0
   -0.2252    2.5379    0.0974 H   0  0  0  0  0  0  0  0  0  0  0  0
   -2.2529    1.1214   -0.0194 H   0  0  0  0  0  0  0  0  0  0  0  0
    0.2140   -2.4118   -0.0925 H   0  0  0  0  0  0  0  0  0  0  0  0
  1  2  2  0
  2  3  1  0
  3  4  2  0
  4  5  1  0
  4  6  1  0
  6  7  2  0
  7  8  1  0
  7  1  1  0
  1  9  1  0
  2 10  1  0
  3 11  1  0
  6 12  1  0
M  END
>  <ofe-name>  (156) 
lig_0155

$$$$
lig_0156
     RDKit          3D

 15 15  0  0  0  0  0  0  0  0999 V2000
    0.1713   -0.9861    0.6387 C   0  0  0  0  0  0  0  0  0  0  0  0
   -1.1815   -1.3318    0.6047 C   0  0  0  0  0  0  0  0  0  0  0  0
   -2.0935   -0.5153   -0.0647 C   0  0  0  0  0  0  0  0  0  0  0  0
   -1.6494    0.6451   -0.6984 C   0  0  0  0  0  0  0  0  0  0  0  0
   -2.8892    1.7483   -1.6043 Br  0  0  0  0  0  0  0  0  0  0  0  0
   -0.3015    0.9989   -0.6703 C   0  0  0  0  0  0  0  0  0  0  0  0
    0.6150    0.1805    0.0011 C   0  0  0  0  0  0  0  0  0  0  0  0
    2.0404    0.5875    0.0105 C   0  0  0  0  0  0  0  0  0  0  0  0
    2.5003    1.5823   -0.5183 O   0  0  0  0  0  0  0  0  0  0  0  0
    2.8250   -0.2722    0.6833 O   0  0  0  0  0  0  0  0  0  0  0  0
    0.8711   -1.6320    1.1643 H   0  0  0  0  0  0  0  0  0  0  0  0
   -1.5236   -2.2375    1.1001 H   0  0  0  0  0  0  0  0  0  0  0  0
   -3.1449   -0.7912   -0.0867 H   0  0  0  0  0  0  0  0  0  0  0  0
    0.0397    1.9051   -1.1663 H   0  0  0  0  0  0  0  0  0  0  0  0
    3.7210    0.1183    0.6063 H   0  0  0  0  0  0  0  0  0  0  0  0
  1  2  1  0
  2  3  2  0
  3  4  1  0
  4  5  1  0
  4  6  2  0
  6  7  1  0
  7  8  1  0
  8  9  2  0
  8 10  1  0
  7  1  2  0
  1 11  1  0
  2 12  1  0
  3 13  1  0
  6 14  1  0
 10 15  1  0
M  END
>  <ofe-name>  (157) 
lig_0156

$$$$
lig_0157
     RDKit          3D

 16 16  0  0  0  0  0  0  0  0999 V2000
   -0.2208    1.0886   -0.1181 C   0  0  0  0  0  0  0  0  0  0  0  0
   -1.6070    1.1087    0.0549 C   0  0  0  0  0  0  0  0  0  0  0  0
   -2.3118   -0.0879    0.1887 C   0  0  0  0  0  0  0  0  0  0  0  0
   -1.6291   -1.3029    0.1411 C   0  0  0  0  0  0  0  0  0  0  0  0
   -2.5898   -2.9222    0.3130 Br  0  0  0  0  0  0  0  0  0  0  0  0
   -0.2468   -1.3338   -0.0323 C   0  0  0  0  0  0  0  0  0  0  0  0
    0.4648   -0.1337   -0.1516 C   0  0  0  0  0  0  0  0  0  0  0  0
    1.9381   -0.2069   -0.3367 C   0  0  0  0  0  0  0  0  0  0  0  0
    2.4839   -1.2215   -0.7503 O   0  0  0  0  0  0  0  0  0  0  0  0
    2.6746    0.8918    0.0103 N   0  0  0  0  0  0  0  0  0  0  0  0
    0.3033    2.0305   -0.2521 H   0  0  0  0  0  0  0  0  0  0  0  0
   -2.1398    2.0566    0.0762 H   0  0  0  0  0  0  0  0  0  0  0  0
   -3.3908   -0.0639    0.3208 H   0  0  0  0  0  0  0  0  0  0  0  0
    0.2823   -2.2837   -0.0738 H   0  0  0  0  0  0  0  0  0  0  0  0
    2.3098    1.6146    0.6132 H   0  0  0  0  0  0  0  0  0  0  0  0
    3.6793    0.7657   -0.0035 H   0  0  0  0  0  0  0  0  0  0  0  0
  1  2  1  0
  2  3  2  0
  3  4  1  0
  4  5  1  0
  4  6  2  0
  6  7  1  0
  7  8  1  0
  8  9  2  0
  8 10  1  0
  7  1  2  0
  1 11  1  0
  2 12  1  0
  3 13  1  0
  6 14  1  0
 10 15  1  0
 10 16  1  0
M  END
>  <ofe-name>  (158) 
lig_0157

$$$$
lig_0158
     RDKit          3D

 13 13  0  0  0  0  0  0  0  0999 V2000
    0.4701   -1.3164    0.1270 C   0  0  0  0  0  0  0  0  0  0  0  0
   -0.9064   -1.3900   -0.0980 C   0  0  0  0  0  0  0  0  0  0  0  0
   -1.6565   -0.2205   -0.2149 C   0  0  0  0  0  0  0  0  0  0  0  0
   -1.0247    1.0169   -0.1033 C   0  0  0  0  0  0  0  0  0  0  0  0
   -2.0426    2.6035   -0.2559 Br  0  0  0  0  0  0  0  0  0  0  0  0
    0.3501    1.0975    0.1212 C   0  0  0  0  0  0  0  0  0  0  0  0
    1.1037   -0.0740    0.2317 C   0  0  0  0  0  0  0  0  0  0  0  0
    2.8571   -0.0028    0.5285 S   0  0  0  0  0  0  0  0  0  0  0  0
    1.0432   -2.2366    0.2193 H   0  0  0  0  0  0  0  0  0  0  0  0
   -1.3921   -2.3593   -0.1800 H   0  0  0  0  0  0  0  0  0  0  0  0
   -2.7275   -0.2842   -0.3891 H   0  0  0  0  0  0  0  0  0  0  0  0
    0.8273    2.0693    0.2142 H   0  0  0  0  0  0  0  0  0  0  0  0
    3.0981    1.0966   -0.2006 H   0  0  0  0  0  0  0  0  0  0  0  0
  1  2  1  0
  2  3  2  0
  3  4  1  0
  4  5  1  0
  4  6  2  0
  6  7  1  0
  7  8  1  0
  7  1  2  0
  1  9  1  0
  2 10  1  0
  3 11  1  0
  6 12  1  0
  8 13  1  0
M  END
>  <ofe-name>  (159) 
lig_0158

$$$$
lig_0159
     RDKit          3D

 16 16  0  0  0  0  0  0  0  0999 V2000
   -0.3545   -1.0245    0.7466 C   0  0  0  0  0  0  0  0  0  0  0  0
   -1.7112   -0.6961    0.7846 C   0  0  0  0  0  0  0  0  0  0  0  0
   -2.2027    0.3367   -0.0125 C   0  0  0  0  0  0  0  0  0  0  0  0
   -1.3327    1.0391   -0.8433 C   0  0  0  0  0  0  0  0  0  0  0  0
   -1.9960    2.4443   -1.9208 Br  0  0  0  0  0  0  0  0  0  0  0  0
    0.0243    0.7169   -0.8867 C   0  0  0  0  0  0  0  0  0  0  0  0
    0.5267   -0.3258   -0.0931 C   0  0  0  0  0  0  0  0  0  0  0  0
    1.9924   -0.6719   -0.1212 C   0  0  0  0  0  0  0  0  0  0  0  0
    2.9042    0.1313    1.2242 S   0  0  0  0  0  0  0  0  0  0  0  0
    0.0152   -1.8274    1.3822 H   0  0  0  0  0  0  0  0  0  0  0  0
   -2.3839   -1.2442    1.4398 H   0  0  0  0  0  0  0  0  0  0  0  0
   -3.2596    0.5869    0.0242 H   0  0  0  0  0  0  0  0  0  0  0  0
    0.6924    1.2764   -1.5375 H   0  0  0  0  0  0  0  0  0  0  0  0
    2.4363   -0.3692   -1.0759 H   0  0  0  0  0  0  0  0  0  0  0  0
    2.1237   -1.7568   -0.0439 H   0  0  0  0  0  0  0  0  0  0  0  0
    2.5255    1.3842    0.9332 H   0  0  0  0  0  0  0  0  0  0  0  0
  1  2  1  0
  2  3  2  0
  3  4  1  0
  4  5  1  0
  4  6  2  0
  6  7  1  0
  7  8  1  0
  8  9  1  0
  7  1  2  0
  1 10  1  0
  2 11  1  0
  3 12  1  0
  6 13  1  0
  8 14  1  0
  8 15  1  0
  9 16  1  0
M  END
>  <ofe-name>  (160) 
lig_0159

$$$$
lig_0160
     RDKit          3D

 24 24  0  0  0  0  0  0  0  0999 V2000
    1.0699   -1.2231   -0.4581 C   0  0  0  0  0  0  0  0  0  0  0  0
    2.4656   -1.3082   -0.3929 C   0  0  0  0  0  0  0  0  0  0  0  0
    3.2104   -0.2530    0.1247 C   0  0  0  0  0  0  0  0  0  0  0  0
    2.5535    0.8853    0.5759 C   0  0  0  0  0  0  0  0  0  0  0  0
    3.5537    2.3267    1.2819 Br  0  0  0  0  0  0  0  0  0  0  0  0
    1.1605    0.9742    0.5127 C   0  0  0  0  0  0  0  0  0  0  0  0
    0.3839   -0.0816   -0.0076 C   0  0  0  0  0  0  0  0  0  0  0  0
   -1.1489    0.0441   -0.0650 C   0  0  0  0  0  0  0  0  0  0  0  0
   -1.8555   -1.1947   -0.6605 C   0  0  0  0  0  0  0  0  0  0  0  0
   -1.7069    0.2463    1.3604 C   0  0  0  0  0  0  0  0  0  0  0  0
   -1.5380    1.2555   -0.9397 C   0  0  0  0  0  0  0  0  0  0  0  0
    0.5389   -2.0766   -0.8716 H   0  0  0  0  0  0  0  0  0  0  0  0
    2.9692   -2.2037   -0.7489 H   0  0  0  0  0  0  0  0  0  0  0  0
    4.2930   -0.3281    0.1713 H   0  0  0  0  0  0  0  0  0  0  0  0
    0.6779    1.8792    0.8743 H   0  0  0  0  0  0  0  0  0  0  0  0
   -1.5365   -1.3843   -1.6920 H   0  0  0  0  0  0  0  0  0  0  0  0
   -1.6557   -2.0962   -0.0696 H   0  0  0  0  0  0  0  0  0  0  0  0
   -2.9434   -1.0575   -0.6802 H   0  0  0  0  0  0  0  0  0  0  0  0
   -1.3419    1.1705    1.8215 H   0  0  0  0  0  0  0  0  0  0  0  0
   -2.8017    0.3035    1.3518 H   0  0  0  0  0  0  0  0  0  0  0  0
   -1.4214   -0.5841    2.0171 H   0  0  0  0  0  0  0  0  0  0  0  0
   -1.1299    1.1579   -1.9527 H   0  0  0  0  0  0  0  0  0  0  0  0
   -2.6271    1.3470   -1.0262 H   0  0  0  0  0  0  0  0  0  0  0  0
   -1.1695    2.2009   -0.5266 H   0  0  0  0  0  0  0  0  0  0  0  0
  1  2  1  0
  2  3  2  0
  3  4  1  0
  4  5  1  0
  4  6  2  0
  6  7  1  0
  7  8  1  0
  8  9  1  0
  8 10  1  0
  8 11  1  0
  7  1  2  0
  1 12  1  0
  2 13  1  0
  3 14  1  0
  6 15  1  0
  9 16  1  0
  9 17  1  0
  9 18  1  0
 10 19  1  0
 10 20  1  0
 10 21  1  0
 11 22  1  0
 11 23  1  0
 11 24  1  0
M  END
>  <ofe-name>  (161) 
lig_0160

$$$$
lig_0161
     RDKit          3D

 16 16  0  0  0  0  0  0  0  0999 V2000
   -0.5905   -1.4570   -0.0363 C   0  0  0  0  0  0  0  0  0  0  0  0
   -1.8177   -1.1965    0.5761 C   0  0  0  0  0  0  0  0  0  0  0  0
   -2.1255    0.0983    0.9869 C   0  0  0  0  0  0  0  0  0  0  0  0
   -1.2013    1.1211    0.7806 C   0  0  0  0  0  0  0  0  0  0  0  0
   -1.6188    2.8805    1.3384 Br  0  0  0  0  0  0  0  0  0  0  0  0
    0.0283    0.8651    0.1681 C   0  0  0  0  0  0  0  0  0  0  0  0
    0.3376   -0.4316   -0.2438 C   0  0  0  0  0  0  0  0  0  0  0  0
    1.4965   -0.8276   -0.8534 O   0  0  0  0  0  0  0  0  0  0  0  0
    2.4764    0.1759   -1.0890 C   0  0  0  0  0  0  0  0  0  0  0  0
   -0.3529   -2.4692   -0.3560 H   0  0  0  0  0  0  0  0  0  0  0  0
   -2.5295   -2.0031    0.7310 H   0  0  0  0  0  0  0  0  0  0  0  0
   -3.0812    0.2990    1.4634 H   0  0  0  0  0  0  0  0  0  0  0  0
    0.7222    1.6856    0.0242 H   0  0  0  0  0  0  0  0  0  0  0  0
    2.8298    0.6109   -0.1483 H   0  0  0  0  0  0  0  0  0  0  0  0
    3.3318   -0.3005   -1.5776 H   0  0  0  0  0  0  0  0  0  0  0  0
    2.0951    0.9489   -1.7644 H   0  0  0  0  0  0  0  0  0  0  0  0
  1  2  1  0
  2  3  2  0
  3  4  1  0
  4  5  1  0
  4  6  2  0
  6  7  1  0
  7  8  1  0
  8  9  1  0
  7  1  2  0
  1 10  1  0
  2 11  1  0
  3 12  1  0
  6 13  1  0
  9 14  1  0
  9 15  1  0
  9 16  1  0
M  END
>  <ofe-name>  (162) 
lig_0161

$$$$
lig_0162
     RDKit          3D

 19 19  0  0  0  0  0  0  0  0999 V2000
    0.8835   -0.9495    0.1384 C   0  0  0  0  0  0  0  0  0  0  0  0
    2.2655   -1.0336    0.3373 C   0  0  0  0  0  0  0  0  0  0  0  0
    3.0210    0.1248    0.5135 C   0  0  0  0  0  0  0  0  0  0  0  0
    2.3892    1.3655    0.4899 C   0  0  0  0  0  0  0  0  0  0  0  0
    3.4075    2.9406    0.7282 Br  0  0  0  0  0  0  0  0  0  0  0  0
    1.0121    1.4544    0.2920 C   0  0  0  0  0  0  0  0  0  0  0  0
    0.2515    0.2956    0.1150 C   0  0  0  0  0  0  0  0  0  0  0  0
   -1.0860    0.5150   -0.0698 O   0  0  0  0  0  0  0  0  0  0  0  0
   -1.9145   -0.6312   -0.2561 C   0  0  0  0  0  0  0  0  0  0  0  0
   -3.3430   -0.1512   -0.4397 C   0  0  0  0  0  0  0  0  0  0  0  0
    0.3314   -1.8740    0.0052 H   0  0  0  0  0  0  0  0  0  0  0  0
    2.7523   -2.0057    0.3546 H   0  0  0  0  0  0  0  0  0  0  0  0
    4.0941    0.0501    0.6674 H   0  0  0  0  0  0  0  0  0  0  0  0
    0.5192    2.4229    0.2736 H   0  0  0  0  0  0  0  0  0  0  0  0
   -1.8664   -1.2825    0.6243 H   0  0  0  0  0  0  0  0  0  0  0  0
   -1.6048   -1.1830   -1.1511 H   0  0  0  0  0  0  0  0  0  0  0  0
   -4.0222   -0.9956   -0.5870 H   0  0  0  0  0  0  0  0  0  0  0  0
   -3.4171    0.5173   -1.3038 H   0  0  0  0  0  0  0  0  0  0  0  0
   -3.6732    0.4200    0.4344 H   0  0  0  0  0  0  0  0  0  0  0  0
  1  2  1  0
  2  3  2  0
  3  4  1  0
  4  5  1  0
  4  6  2  0
  6  7  1  0
  7  8  1  0
  8  9  1  0
  9 10  1  0
  7  1  2  0
  1 11  1  0
  2 12  1  0
  3 13  1  0
  6 14  1  0
  9 15  1  0
  9 16  1  0
 10 17  1  0
 10 18  1  0
 10 19  1  0
M  END
>  <ofe-name>  (163) 
lig_0162

$$$$
lig_0163
     RDKit          3D

 19 19  0  0  0  0  0  0  0  0999 V2000
   -1.1004   -1.3338    0.1100 C   0  0  0  0  0  0  0  0  0  0  0  0
   -2.4935   -1.2264    0.0879 C   0  0  0  0  0  0  0  0  0  0  0  0
   -3.0914    0.0249   -0.0335 C   0  0  0  0  0  0  0  0  0  0  0  0
   -2.2901    1.1602   -0.1321 C   0  0  0  0  0  0  0  0  0  0  0  0
   -3.1043    2.8604   -0.2980 Br  0  0  0  0  0  0  0  0  0  0  0  0
   -0.8966    1.0583   -0.1105 C   0  0  0  0  0  0  0  0  0  0  0  0
   -0.2898   -0.1934    0.0117 C   0  0  0  0  0  0  0  0  0  0  0  0
    1.1063   -0.3961    0.0417 N   0  0  0  0  0  0  0  0  0  0  0  0
    2.0989    0.5649   -0.0276 C   0  0  0  0  0  0  0  0  0  0  0  0
    1.9472    1.7782   -0.1071 O   0  0  0  0  0  0  0  0  0  0  0  0
    3.4809   -0.0365    0.0387 C   0  0  0  0  0  0  0  0  0  0  0  0
   -0.6602   -2.3233    0.2056 H   0  0  0  0  0  0  0  0  0  0  0  0
   -3.1103   -2.1182    0.1653 H   0  0  0  0  0  0  0  0  0  0  0  0
   -4.1749    0.1063   -0.0505 H   0  0  0  0  0  0  0  0  0  0  0  0
   -0.3083    1.9663   -0.1909 H   0  0  0  0  0  0  0  0  0  0  0  0
    1.4117   -1.3568    0.1327 H   0  0  0  0  0  0  0  0  0  0  0  0
    3.7536   -0.2030    1.0840 H   0  0  0  0  0  0  0  0  0  0  0  0
    4.1983    0.6508   -0.4192 H   0  0  0  0  0  0  0  0  0  0  0  0
    3.5227   -0.9828   -0.5082 H   0  0  0  0  0  0  0  0  0  0  0  0
  1  2  1  0
  2  3  2  0
  3  4  1  0
  4  5  1  0
  4  6  2  0
  6  7  1  0
  7  8  1  0
  8  9  1  0
  9 10  2  0
  9 11  1  0
  7  1  2  0
  1 12  1  0
  2 13  1  0
  3 14  1  0
  6 15  1  0
  8 16  1  0
 11 17  1  0
 11 18  1  0
 11 19  1  0
M  END
>  <ofe-name>  (164) 
lig_0163

$$$$
lig_0164
     RDKit          3D

 22 23  0  0  0  0  0  0  0  0999 V2000
   -1.4700    0.0693    1.1476 C   0  0  0  0  0  0  0  0  0  0  0  0
   -2.8669    0.0264    1.1232 C   0  0  0  0  0  0  0  0  0  0  0  0
   -3.5385   -0.1080   -0.0897 C   0  0  0  0  0  0  0  0  0  0  0  0
   -2.8083   -0.1985   -1.2717 C   0  0  0  0  0  0  0  0  0  0  0  0
   -3.7155   -0.3835   -2.9206 Br  0  0  0  0  0  0  0  0  0  0  0  0
   -1.4129   -0.1553   -1.2514 C   0  0  0  0  0  0  0  0  0  0  0  0
   -0.7188   -0.0203   -0.0374 C   0  0  0  0  0  0  0  0  0  0  0  0
    0.7524    0.0265   -0.0071 C   0  0  0  0  0  0  0  0  0  0  0  0
    1.4639    0.9490   -0.7925 C   0  0  0  0  0  0  0  0  0  0  0  0
    2.8605    0.9940   -0.7643 C   0  0  0  0  0  0  0  0  0  0  0  0
    3.5701    0.1153    0.0501 C   0  0  0  0  0  0  0  0  0  0  0  0
    2.8848   -0.8074    0.8361 C   0  0  0  0  0  0  0  0  0  0  0  0
    1.4881   -0.8505    0.8075 C   0  0  0  0  0  0  0  0  0  0  0  0
   -0.9650    0.1868    2.1050 H   0  0  0  0  0  0  0  0  0  0  0  0
   -3.4281    0.1011    2.0512 H   0  0  0  0  0  0  0  0  0  0  0  0
   -4.6246   -0.1406   -0.1029 H   0  0  0  0  0  0  0  0  0  0  0  0
   -0.8581   -0.2390   -2.1835 H   0  0  0  0  0  0  0  0  0  0  0  0
    0.9297    1.6526   -1.4280 H   0  0  0  0  0  0  0  0  0  0  0  0
    3.3919    1.7174   -1.3772 H   0  0  0  0  0  0  0  0  0  0  0  0
    4.6561    0.1494    0.0718 H   0  0  0  0  0  0  0  0  0  0  0  0
    3.4355   -1.4972    1.4703 H   0  0  0  0  0  0  0  0  0  0  0  0
    0.9737   -1.5875    1.4210 H   0  0  0  0  0  0  0  0  0  0  0  0
  1  2  1  0
  2  3  2  0
  3  4  1  0
  4  5  1  0
  4  6  2  0
  6  7  1  0
  7  8  1  0
  8  9  2  0
  9 10  1  0
 10 11  2  0
 11 12  1  0
 12 13  2  0
  7  1  2  0
 13  8  1  0
  1 14  1  0
  2 15  1  0
  3 16  1  0
  6 17  1  0
  9 18  1  0
 10 19  1  0
 11 20  1  0
 12 21  1  0
 13 22  1  0
M  END
>  <ofe-name>  (165) 
lig_0164

$$$$
lig_0165
     RDKit          3D

 18 18  0  0  0  0  0  0  0  0999 V2000
    1.1855    1.2619   -0.4010 C   0  0  0  0  0  0  0  0  0  0  0  0
   -0.0045    1.9480   -0.6491 C   0  0  0  0  0  0  0  0  0  0  0  0
   -1.2302    1.3092   -0.4564 C   0  0  0  0  0  0  0  0  0  0  0  0
   -1.2723   -0.0197   -0.0144 C   0  0  0  0  0  0  0  0  0  0  0  0
   -2.5998   -0.6527    0.1747 C   0  0  0  0  0  0  0  0  0  0  0  0
   -3.6764   -0.1201   -0.0204 O   0  0  0  0  0  0  0  0  0  0  0  0
   -2.5142   -1.9245    0.5999 O   0  0  0  0  0  0  0  0  0  0  0  0
   -0.0784   -0.7081    0.2346 C   0  0  0  0  0  0  0  0  0  0  0  0
    1.1526   -0.0674    0.0414 C   0  0  0  0  0  0  0  0  0  0  0  0
    2.3924   -0.8332    0.3170 C   0  0  0  0  0  0  0  0  0  0  0  0
    2.4469   -1.9861    0.7020 O   0  0  0  0  0  0  0  0  0  0  0  0
    3.5085   -0.1169    0.0967 O   0  0  0  0  0  0  0  0  0  0  0  0
    2.1338    1.7723   -0.5554 H   0  0  0  0  0  0  0  0  0  0  0  0
    0.0231    2.9797   -0.9924 H   0  0  0  0  0  0  0  0  0  0  0  0
   -2.1542    1.8511   -0.6522 H   0  0  0  0  0  0  0  0  0  0  0  0
   -3.4472   -2.2137    0.6809 H   0  0  0  0  0  0  0  0  0  0  0  0
   -0.0995   -1.7407    0.5783 H   0  0  0  0  0  0  0  0  0  0  0  0
    4.2339   -0.7391    0.3159 H   0  0  0  0  0  0  0  0  0  0  0  0
  1  2  1  0
  2  3  2  0
  3  4  1  0
  4  5  1  0
  5  6  2  0
  5  7  1  0
  4  8  2  0
  8  9  1  0
  9 10  1  0
 10 11  2  0
 10 12  1  0
  9  1  2  0
  1 13  1  0
  2 14  1  0
  3 15  1  0
  7 16  1  0
  8 17  1  0
 12 18  1  0
M  END
>  <ofe-name>  (166) 
lig_0165

$$$$
lig_0166
     RDKit          3D

 19 19  0  0  0  0  0  0  0  0999 V2000
   -0.9547   -1.5698    0.3930 C   0  0  0  0  0  0  0  0  0  0  0  0
    0.3278   -2.1204    0.4135 C   0  0  0  0  0  0  0  0  0  0  0  0
    1.4335   -1.3211    0.1219 C   0  0  0  0  0  0  0  0  0  0  0  0
    1.2561    0.0308   -0.1980 C   0  0  0  0  0  0  0  0  0  0  0  0
    2.3989    0.9181   -0.5216 C   0  0  0  0  0  0  0  0  0  0  0  0
    2.3222    2.1075   -0.7686 O   0  0  0  0  0  0  0  0  0  0  0  0
    3.5791    0.2759   -0.5185 O   0  0  0  0  0  0  0  0  0  0  0  0
   -0.0329    0.5829   -0.2194 C   0  0  0  0  0  0  0  0  0  0  0  0
   -1.1416   -0.2149    0.0869 C   0  0  0  0  0  0  0  0  0  0  0  0
   -2.5307    0.3179    0.0776 C   0  0  0  0  0  0  0  0  0  0  0  0
   -3.5012   -0.4255    0.0068 O   0  0  0  0  0  0  0  0  0  0  0  0
   -2.6958    1.6706    0.1855 N   0  0  0  0  0  0  0  0  0  0  0  0
   -1.8132   -2.2014    0.6180 H   0  0  0  0  0  0  0  0  0  0  0  0
    0.4630   -3.1723    0.6546 H   0  0  0  0  0  0  0  0  0  0  0  0
    2.4275   -1.7625    0.1410 H   0  0  0  0  0  0  0  0  0  0  0  0
    4.2309    0.9709   -0.7493 H   0  0  0  0  0  0  0  0  0  0  0  0
   -0.1559    1.6254   -0.5002 H   0  0  0  0  0  0  0  0  0  0  0  0
   -3.6501    1.9938    0.2858 H   0  0  0  0  0  0  0  0  0  0  0  0
   -1.9628    2.2939    0.4910 H   0  0  0  0  0  0  0  0  0  0  0  0
  1  2  1  0
  2  3  2  0
  3  4  1  0
  4  5  1  0
  5  6  2  0
  5  7  1  0
  4  8  2  0
  8  9  1  0
  9 10  1  0
 10 11  2  0
 10 12  1  0
  9  1  2  0
  1 13  1  0
  2 14  1  0
  3 15  1  0
  7 16  1  0
  8 17  1  0
 12 18  1  0
 12 19  1  0
M  END
>  <ofe-name>  (167) 
lig_0166

$$$$
lig_0167
     RDKit          3D

 16 16  0  0  0  0  0  0  0  0999 V2000
   -1.8611   -0.9100   -0.1236 C   0  0  0  0  0  0  0  0  0  0  0  0
   -0.8069   -1.7743    0.1782 C   0  0  0  0  0  0  0  0  0  0  0  0
    0.4964   -1.2833    0.2597 C   0  0  0  0  0  0  0  0  0  0  0  0
    0.7463    0.0760    0.0363 C   0  0  0  0  0  0  0  0  0  0  0  0
    2.1128    0.6462    0.1086 C   0  0  0  0  0  0  0  0  0  0  0  0
    2.4051    1.8154   -0.0605 O   0  0  0  0  0  0  0  0  0  0  0  0
    3.0503   -0.2752    0.3903 O   0  0  0  0  0  0  0  0  0  0  0  0
   -0.3149    0.9404   -0.2665 C   0  0  0  0  0  0  0  0  0  0  0  0
   -1.6212    0.4500   -0.3419 C   0  0  0  0  0  0  0  0  0  0  0  0
   -2.9806    1.5288   -0.7367 S   0  0  0  0  0  0  0  0  0  0  0  0
   -2.8721   -1.3076   -0.1865 H   0  0  0  0  0  0  0  0  0  0  0  0
   -1.0024   -2.8305    0.3482 H   0  0  0  0  0  0  0  0  0  0  0  0
    1.3086   -1.9672    0.4952 H   0  0  0  0  0  0  0  0  0  0  0  0
    3.8867    0.2360    0.4041 H   0  0  0  0  0  0  0  0  0  0  0  0
   -0.1113    1.9942   -0.4463 H   0  0  0  0  0  0  0  0  0  0  0  0
   -2.4356    2.6611   -0.2679 H   0  0  0  0  0  0  0  0  0  0  0  0
  1  2  2  0
  2  3  1  0
  3  4  2  0
  4  5  1  0
  5  6  2  0
  5  7  1  0
  4  8  1  0
  8  9  2  0
  9 10  1  0
  9  1  1  0
  1 11  1  0
  2 12  1  0
  3 13  1  0
  7 14  1  0
  8 15  1  0
 10 16  1  0
M  END
>  <ofe-name>  (168) 
lig_0167

$$$$
lig_0168
     RDKit          3D

 19 19  0  0  0  0  0  0  0  0999 V2000
    0.8715    1.4027    0.5336 C   0  0  0  0  0  0  0  0  0  0  0  0
   -0.4216    1.9028    0.6978 C   0  0  0  0  0  0  0  0  0  0  0  0
   -1.5253    1.0829    0.4597 C   0  0  0  0  0  0  0  0  0  0  0  0
   -1.3372   -0.2423    0.0520 C   0  0  0  0  0  0  0  0  0  0  0  0
   -2.4771   -1.1521   -0.2164 C   0  0  0  0  0  0  0  0  0  0  0  0
   -2.3947   -2.3211   -0.5457 O   0  0  0  0  0  0  0  0  0  0  0  0
   -3.6721   -0.5559   -0.0572 O   0  0  0  0  0  0  0  0  0  0  0  0
   -0.0374   -0.7413   -0.1119 C   0  0  0  0  0  0  0  0  0  0  0  0
    1.0786    0.0742    0.1340 C   0  0  0  0  0  0  0  0  0  0  0  0
    2.4733   -0.4609   -0.0566 C   0  0  0  0  0  0  0  0  0  0  0  0
    3.0968   -0.1457   -1.7288 S   0  0  0  0  0  0  0  0  0  0  0  0
    1.7205    2.0600    0.7124 H   0  0  0  0  0  0  0  0  0  0  0  0
   -0.5691    2.9350    1.0064 H   0  0  0  0  0  0  0  0  0  0  0  0
   -2.5258    1.4878    0.5900 H   0  0  0  0  0  0  0  0  0  0  0  0
   -4.3157   -1.2637   -0.2700 H   0  0  0  0  0  0  0  0  0  0  0  0
    0.1042   -1.7706   -0.4394 H   0  0  0  0  0  0  0  0  0  0  0  0
    2.4944   -1.5400    0.1319 H   0  0  0  0  0  0  0  0  0  0  0  0
    3.1545   -0.0034    0.6693 H   0  0  0  0  0  0  0  0  0  0  0  0
    4.2821   -0.7484   -1.5609 H   0  0  0  0  0  0  0  0  0  0  0  0
  1  2  1  0
  2  3  2  0
  3  4  1  0
  4  5  1  0
  5  6  2  0
  5  7  1  0
  4  8  2  0
  8  9  1  0
  9 10  1  0
 10 11  1  0
  9  1  2  0
  1 12  1  0
  2 13  1  0
  3 14  1  0
  7 15  1  0
  8 16  1  0
 10 17  1  0
 10 18  1  0
 11 19  1  0
M  END
>  <ofe-name>  (169) 
lig_0168

$$$$
lig_0169
     RDKit          3D

 27 27  0  0  0  0  0  0  0  0999 V2000
   -0.1756   -1.5983   -0.7138 C   0  0  0  0  0  0  0  0  0  0  0  0
    1.0088   -2.2309   -1.1006 C   0  0  0  0  0  0  0  0  0  0  0  0
    2.2278   -1.5775   -0.9511 C   0  0  0  0  0  0  0  0  0  0  0  0
    2.2633   -0.2886   -0.4137 C   0  0  0  0  0  0  0  0  0  0  0  0
    3.5846    0.3715   -0.2719 C   0  0  0  0  0  0  0  0  0  0  0  0
    4.6591   -0.1086   -0.5834 O   0  0  0  0  0  0  0  0  0  0  0  0
    3.5026    1.6064    0.2549 O   0  0  0  0  0  0  0  0  0  0  0  0
    1.0685    0.3421   -0.0266 C   0  0  0  0  0  0  0  0  0  0  0  0
   -0.1766   -0.2987   -0.1682 C   0  0  0  0  0  0  0  0  0  0  0  0
   -1.5039    0.3629    0.2454 C   0  0  0  0  0  0  0  0  0  0  0  0
   -2.4321    0.4759   -0.9833 C   0  0  0  0  0  0  0  0  0  0  0  0
   -2.1955   -0.4941    1.3276 C   0  0  0  0  0  0  0  0  0  0  0  0
   -1.3405    1.7858    0.8259 C   0  0  0  0  0  0  0  0  0  0  0  0
   -1.1093   -2.1420   -0.8465 H   0  0  0  0  0  0  0  0  0  0  0  0
    0.9772   -3.2341   -1.5185 H   0  0  0  0  0  0  0  0  0  0  0  0
    3.1471   -2.0745   -1.2538 H   0  0  0  0  0  0  0  0  0  0  0  0
    4.4347    1.9078    0.2860 H   0  0  0  0  0  0  0  0  0  0  0  0
    1.1297    1.3444    0.3878 H   0  0  0  0  0  0  0  0  0  0  0  0
   -3.3725    0.9760   -0.7236 H   0  0  0  0  0  0  0  0  0  0  0  0
   -1.9570    1.0542   -1.7846 H   0  0  0  0  0  0  0  0  0  0  0  0
   -2.6946   -0.5042   -1.3964 H   0  0  0  0  0  0  0  0  0  0  0  0
   -2.4531   -1.4944    0.9627 H   0  0  0  0  0  0  0  0  0  0  0  0
   -1.5487   -0.6200    2.2039 H   0  0  0  0  0  0  0  0  0  0  0  0
   -3.1279   -0.0269    1.6656 H   0  0  0  0  0  0  0  0  0  0  0  0
   -0.8858    2.4687    0.0988 H   0  0  0  0  0  0  0  0  0  0  0  0
   -0.7189    1.7844    1.7290 H   0  0  0  0  0  0  0  0  0  0  0  0
   -2.3115    2.2127    1.1045 H   0  0  0  0  0  0  0  0  0  0  0  0
  1  2  1  0
  2  3  2  0
  3  4  1  0
  4  5  1  0
  5  6  2  0
  5  7  1  0
  4  8  2  0
  8  9  1  0
  9 10  1  0
 10 11  1  0
 10 12  1  0
 10 13  1  0
  9  1  2  0
  1 14  1  0
  2 15  1  0
  3 16  1  0
  7 17  1  0
  8 18  1  0
 11 19  1  0
 11 20  1  0
 11 21  1  0
 12 22  1  0
 12 23  1  0
 12 24  1  0
 13 25  1  0
 13 26  1  0
 13 27  1  0
M  END
>  <ofe-name>  (170) 
lig_0169

$$$$
lig_0170
     RDKit          3D

 19 19  0  0  0  0  0  0  0  0999 V2000
   -0.9291    1.1722    0.2546 C   0  0  0  0  0  0  0  0  0  0  0  0
    0.2463    1.9223    0.1568 C   0  0  0  0  0  0  0  0  0  0  0  0
    1.4642    1.2878   -0.0863 C   0  0  0  0  0  0  0  0  0  0  0  0
    1.5109   -0.1027   -0.2329 C   0  0  0  0  0  0  0  0  0  0  0  0
    2.8251   -0.7378   -0.4902 C   0  0  0  0  0  0  0  0  0  0  0  0
    3.8896   -0.1555   -0.5885 O   0  0  0  0  0  0  0  0  0  0  0  0
    2.7475   -2.0742   -0.6130 O   0  0  0  0  0  0  0  0  0  0  0  0
    0.3309   -0.8495   -0.1341 C   0  0  0  0  0  0  0  0  0  0  0  0
   -0.8916   -0.2161    0.1096 C   0  0  0  0  0  0  0  0  0  0  0  0
   -1.9656   -1.0602    0.1830 O   0  0  0  0  0  0  0  0  0  0  0  0
   -3.2353   -0.4690    0.4294 C   0  0  0  0  0  0  0  0  0  0  0  0
   -1.8567    1.7024    0.4445 H   0  0  0  0  0  0  0  0  0  0  0  0
    0.2120    3.0033    0.2704 H   0  0  0  0  0  0  0  0  0  0  0  0
    2.3747    1.8794   -0.1610 H   0  0  0  0  0  0  0  0  0  0  0  0
    3.6732   -2.3505   -0.7771 H   0  0  0  0  0  0  0  0  0  0  0  0
    0.3510   -1.9310   -0.2457 H   0  0  0  0  0  0  0  0  0  0  0  0
   -3.5156    0.2150   -0.3784 H   0  0  0  0  0  0  0  0  0  0  0  0
   -3.9780   -1.2721    0.4581 H   0  0  0  0  0  0  0  0  0  0  0  0
   -3.2536    0.0363    1.4007 H   0  0  0  0  0  0  0  0  0  0  0  0
  1  2  2  0
  2  3  1  0
  3  4  2  0
  4  5  1  0
  5  6  2  0
  5  7  1  0
  4  8  1  0
  8  9  2  0
  9 10  1  0
 10 11  1  0
  9  1  1  0
  1 12  1  0
  2 13  1  0
  3 14  1  0
  7 15  1  0
  8 16  1  0
 11 17  1  0
 11 18  1  0
 11 19  1  0
M  END
>  <ofe-name>  (171) 
lig_0170

$$$$
lig_0171
     RDKit          3D

 22 22  0  0  0  0  0  0  0  0999 V2000
    0.0204   -0.2824    1.4579 C   0  0  0  0  0  0  0  0  0  0  0  0
   -1.2762   -0.5361    1.9146 C   0  0  0  0  0  0  0  0  0  0  0  0
   -2.3514   -0.4991    1.0272 C   0  0  0  0  0  0  0  0  0  0  0  0
   -2.1331   -0.2073   -0.3235 C   0  0  0  0  0  0  0  0  0  0  0  0
   -3.3027   -0.1779   -1.2333 C   0  0  0  0  0  0  0  0  0  0  0  0
   -4.4585   -0.3870   -0.9134 O   0  0  0  0  0  0  0  0  0  0  0  0
   -2.9726    0.1123   -2.5038 O   0  0  0  0  0  0  0  0  0  0  0  0
   -0.8327    0.0460   -0.7758 C   0  0  0  0  0  0  0  0  0  0  0  0
    0.2471    0.0095    0.1116 C   0  0  0  0  0  0  0  0  0  0  0  0
    1.4614    0.2752   -0.4593 O   0  0  0  0  0  0  0  0  0  0  0  0
    2.6030    0.2528    0.3958 C   0  0  0  0  0  0  0  0  0  0  0  0
    3.8250    0.5725   -0.4464 C   0  0  0  0  0  0  0  0  0  0  0  0
    0.8301   -0.3207    2.1793 H   0  0  0  0  0  0  0  0  0  0  0  0
   -1.4478   -0.7630    2.9641 H   0  0  0  0  0  0  0  0  0  0  0  0
   -3.3577   -0.6978    1.3910 H   0  0  0  0  0  0  0  0  0  0  0  0
   -3.8289    0.0967   -2.9798 H   0  0  0  0  0  0  0  0  0  0  0  0
   -0.6470    0.2742   -1.8227 H   0  0  0  0  0  0  0  0  0  0  0  0
    2.7255   -0.7413    0.8409 H   0  0  0  0  0  0  0  0  0  0  0  0
    2.5035    1.0090    1.1831 H   0  0  0  0  0  0  0  0  0  0  0  0
    4.7319    0.5680    0.1648 H   0  0  0  0  0  0  0  0  0  0  0  0
    3.9389   -0.1587   -1.2536 H   0  0  0  0  0  0  0  0  0  0  0  0
    3.7215    1.5551   -0.9186 H   0  0  0  0  0  0  0  0  0  0  0  0
  1  2  2  0
  2  3  1  0
  3  4  2  0
  4  5  1  0
  5  6  2  0
  5  7  1  0
  4  8  1  0
  8  9  2  0
  9 10  1  0
 10 11  1  0
 11 12  1  0
  9  1  1  0
  1 13  1  0
  2 14  1  0
  3 15  1  0
  7 16  1  0
  8 17  1  0
 11 18  1  0
 11 19  1  0
 12 20  1  0
 12 21  1  0
 12 22  1  0
M  END
>  <ofe-name>  (172) 
lig_0171

$$$$
lig_0172
     RDKit          3D

 22 22  0  0  0  0  0  0  0  0999 V2000
    0.0217   -1.5428   -0.9505 C   0  0  0  0  0  0  0  0  0  0  0  0
   -1.2772   -2.0548   -0.9636 C   0  0  0  0  0  0  0  0  0  0  0  0
   -2.2741   -1.4333   -0.2164 C   0  0  0  0  0  0  0  0  0  0  0  0
   -1.9725   -0.2985    0.5455 C   0  0  0  0  0  0  0  0  0  0  0  0
   -3.0701    0.3255    1.3244 C   0  0  0  0  0  0  0  0  0  0  0  0
   -4.2241   -0.0616    1.3587 O   0  0  0  0  0  0  0  0  0  0  0  0
   -2.6745    1.4019    2.0234 O   0  0  0  0  0  0  0  0  0  0  0  0
   -0.6650    0.2127    0.5552 C   0  0  0  0  0  0  0  0  0  0  0  0
    0.3397   -0.4060   -0.1933 C   0  0  0  0  0  0  0  0  0  0  0  0
    1.6784    0.0375   -0.2417 N   0  0  0  0  0  0  0  0  0  0  0  0
    2.2294    1.1315    0.4009 C   0  0  0  0  0  0  0  0  0  0  0  0
    1.6480    1.9361    1.1189 O   0  0  0  0  0  0  0  0  0  0  0  0
    3.7003    1.2867    0.1030 C   0  0  0  0  0  0  0  0  0  0  0  0
    0.7810   -2.0475   -1.5430 H   0  0  0  0  0  0  0  0  0  0  0  0
   -1.5112   -2.9365   -1.5551 H   0  0  0  0  0  0  0  0  0  0  0  0
   -3.2860   -1.8342   -0.2280 H   0  0  0  0  0  0  0  0  0  0  0  0
   -3.4845    1.7076    2.4808 H   0  0  0  0  0  0  0  0  0  0  0  0
   -0.4541    1.0930    1.1540 H   0  0  0  0  0  0  0  0  0  0  0  0
    2.3035   -0.5064   -0.8232 H   0  0  0  0  0  0  0  0  0  0  0  0
    4.1734    1.8661    0.9011 H   0  0  0  0  0  0  0  0  0  0  0  0
    4.1943    0.3121    0.0539 H   0  0  0  0  0  0  0  0  0  0  0  0
    3.8237    1.8107   -0.8483 H   0  0  0  0  0  0  0  0  0  0  0  0
  1  2  1  0
  2  3  2  0
  3  4  1  0
  4  5  1  0
  5  6  2  0
  5  7  1  0
  4  8  2  0
  8  9  1  0
  9 10  1  0
 10 11  1  0
 11 12  2  0
 11 13  1  0
  9  1  2  0
  1 14  1  0
  2 15  1  0
  3 16  1  0
  7 17  1  0
  8 18  1  0
 10 19  1  0
 13 20  1  0
 13 21  1  0
 13 22  1  0
M  END
>  <ofe-name>  (173) 
lig_0172

$$$$
lig_0173
     RDKit          3D

 25 26  0  0  0  0  0  0  0  0999 V2000
    0.3405    1.8829   -0.0042 C   0  0  0  0  0  0  0  0  0  0  0  0
    1.6379    2.3976   -0.0639 C   0  0  0  0  0  0  0  0  0  0  0  0
    2.7247    1.5331   -0.1761 C   0  0  0  0  0  0  0  0  0  0  0  0
    2.5164    0.1509   -0.2281 C   0  0  0  0  0  0  0  0  0  0  0  0
    3.7013   -0.7320   -0.3491 C   0  0  0  0  0  0  0  0  0  0  0  0
    4.8593   -0.3646   -0.4250 O   0  0  0  0  0  0  0  0  0  0  0  0
    3.3825   -2.0382   -0.3660 O   0  0  0  0  0  0  0  0  0  0  0  0
    1.2115   -0.3595   -0.1678 C   0  0  0  0  0  0  0  0  0  0  0  0
    0.1034    0.4984   -0.0550 C   0  0  0  0  0  0  0  0  0  0  0  0
   -1.2667   -0.0380    0.0083 C   0  0  0  0  0  0  0  0  0  0  0  0
   -1.6178   -1.0188    0.9512 C   0  0  0  0  0  0  0  0  0  0  0  0
   -2.9180   -1.5279    1.0122 C   0  0  0  0  0  0  0  0  0  0  0  0
   -3.8902   -1.0651    0.1293 C   0  0  0  0  0  0  0  0  0  0  0  0
   -3.5636   -0.0940   -0.8136 C   0  0  0  0  0  0  0  0  0  0  0  0
   -2.2632    0.4148   -0.8726 C   0  0  0  0  0  0  0  0  0  0  0  0
   -0.4941    2.5751    0.0957 H   0  0  0  0  0  0  0  0  0  0  0  0
    1.7990    3.4719   -0.0196 H   0  0  0  0  0  0  0  0  0  0  0  0
    3.7333    1.9394   -0.2220 H   0  0  0  0  0  0  0  0  0  0  0  0
    4.2484   -2.4896   -0.4498 H   0  0  0  0  0  0  0  0  0  0  0  0
    1.0502   -1.4346   -0.2214 H   0  0  0  0  0  0  0  0  0  0  0  0
   -0.8773   -1.3879    1.6581 H   0  0  0  0  0  0  0  0  0  0  0  0
   -3.1697   -2.2842    1.7511 H   0  0  0  0  0  0  0  0  0  0  0  0
   -4.9011   -1.4612    0.1758 H   0  0  0  0  0  0  0  0  0  0  0  0
   -4.3190    0.2670   -1.5067 H   0  0  0  0  0  0  0  0  0  0  0  0
   -2.0278    1.1645   -1.6255 H   0  0  0  0  0  0  0  0  0  0  0  0
  1  2  1  0
  2  3  2  0
  3  4  1  0
  4  5  1  0
  5  6  2  0
  5  7  1  0
  4  8  2  0
  8  9  1  0
  9 10  1  0
 10 11  2  0
 11 12  1  0
 12 13  2  0
 13 14  1  0
 14 15  2  0
  9  1  2  0
 15 10  1  0
  1 16  1  0
  2 17  1  0
  3 18  1  0
  7 19  1  0
  8 20  1  0
 11 21  1  0
 12 22  1  0
 13 23  1  0
 14 24  1  0
 15 25  1  0
M  END
>  <ofe-name>  (174) 
lig_0173

$$$$
lig_0174
     RDKit          3D

 20 20  0  0  0  0  0  0  0  0999 V2000
   -1.3920    1.4578    0.3835 C   0  0  0  0  0  0  0  0  0  0  0  0
   -0.2747    2.2740    0.5603 C   0  0  0  0  0  0  0  0  0  0  0  0
    1.0049    1.7474    0.3828 C   0  0  0  0  0  0  0  0  0  0  0  0
    1.1719    0.3981    0.0456 C   0  0  0  0  0  0  0  0  0  0  0  0
    2.5543   -0.1220   -0.1152 C   0  0  0  0  0  0  0  0  0  0  0  0
    3.4894    0.6147   -0.3984 O   0  0  0  0  0  0  0  0  0  0  0  0
    2.7512   -1.4579    0.1028 N   0  0  0  0  0  0  0  0  0  0  0  0
    0.0506   -0.4186   -0.1503 C   0  0  0  0  0  0  0  0  0  0  0  0
   -1.2341    0.1167    0.0106 C   0  0  0  0  0  0  0  0  0  0  0  0
   -2.4540   -0.7088   -0.1837 C   0  0  0  0  0  0  0  0  0  0  0  0
   -3.5113   -0.4328    0.3668 O   0  0  0  0  0  0  0  0  0  0  0  0
   -2.3608   -1.7749   -1.0356 N   0  0  0  0  0  0  0  0  0  0  0  0
   -2.3893    1.8714    0.5259 H   0  0  0  0  0  0  0  0  0  0  0  0
   -0.4008    3.3185    0.8360 H   0  0  0  0  0  0  0  0  0  0  0  0
    1.8748    2.3883    0.5187 H   0  0  0  0  0  0  0  0  0  0  0  0
    3.7208   -1.7508    0.1279 H   0  0  0  0  0  0  0  0  0  0  0  0
    2.0989   -2.0063    0.6456 H   0  0  0  0  0  0  0  0  0  0  0  0
    0.1764   -1.4604   -0.4252 H   0  0  0  0  0  0  0  0  0  0  0  0
   -3.2405   -2.2261   -1.2571 H   0  0  0  0  0  0  0  0  0  0  0  0
   -1.6358   -1.8284   -1.7373 H   0  0  0  0  0  0  0  0  0  0  0  0
  1  2  2  0
  2  3  1  0
  3  4  2  0
  4  5  1  0
  5  6  2  0
  5  7  1  0
  4  8  1  0
  8  9  2  0
  9 10  1  0
 10 11  2  0
 10 12  1  0
  9  1  1  0
  1 13  1  0
  2 14  1  0
  3 15  1  0
  7 16  1  0
  7 17  1  0
  8 18  1  0
 12 19  1  0
 12 20  1  0
M  END
>  <ofe-name>  (175) 
lig_0174

$$$$
lig_0175
     RDKit          3D

 17 17  0  0  0  0  0  0  0  0999 V2000
    2.0533   -0.8207   -0.2211 C   0  0  0  0  0  0  0  0  0  0  0  0
    1.1190   -1.1334   -1.2105 C   0  0  0  0  0  0  0  0  0  0  0  0
   -0.1741   -0.6129   -1.1405 C   0  0  0  0  0  0  0  0  0  0  0  0
   -0.5356    0.2166   -0.0718 C   0  0  0  0  0  0  0  0  0  0  0  0
   -1.8984    0.7976    0.0508 C   0  0  0  0  0  0  0  0  0  0  0  0
   -2.1113    1.7977    0.7241 O   0  0  0  0  0  0  0  0  0  0  0  0
   -2.9214    0.1514   -0.5861 N   0  0  0  0  0  0  0  0  0  0  0  0
    0.4104    0.5393    0.9111 C   0  0  0  0  0  0  0  0  0  0  0  0
    1.7064    0.0230    0.8379 C   0  0  0  0  0  0  0  0  0  0  0  0
    2.9135    0.4075    2.0875 S   0  0  0  0  0  0  0  0  0  0  0  0
    3.0577   -1.2340   -0.2886 H   0  0  0  0  0  0  0  0  0  0  0  0
    1.4042   -1.7769   -2.0395 H   0  0  0  0  0  0  0  0  0  0  0  0
   -0.8756   -0.8432   -1.9369 H   0  0  0  0  0  0  0  0  0  0  0  0
   -2.8415   -0.8066   -0.8946 H   0  0  0  0  0  0  0  0  0  0  0  0
   -3.8515    0.4933   -0.3781 H   0  0  0  0  0  0  0  0  0  0  0  0
    0.1221    1.1910    1.7337 H   0  0  0  0  0  0  0  0  0  0  0  0
    2.4229    1.6102    2.4227 H   0  0  0  0  0  0  0  0  0  0  0  0
  1  2  2  0
  2  3  1  0
  3  4  2  0
  4  5  1  0
  5  6  2  0
  5  7  1  0
  4  8  1  0
  8  9  2  0
  9 10  1  0
  9  1  1  0
  1 11  1  0
  2 12  1  0
  3 13  1  0
  7 14  1  0
  7 15  1  0
  8 16  1  0
 10 17  1  0
M  END
>  <ofe-name>  (176) 
lig_0175

$$$$
lig_0176
     RDKit          3D

 20 20  0  0  0  0  0  0  0  0999 V2000
   -0.9671   -1.5496   -0.3505 C   0  0  0  0  0  0  0  0  0  0  0  0
    0.3491   -2.0109   -0.2895 C   0  0  0  0  0  0  0  0  0  0  0  0
    1.3847   -1.1352    0.0407 C   0  0  0  0  0  0  0  0  0  0  0  0
    1.1042    0.2108    0.3023 C   0  0  0  0  0  0  0  0  0  0  0  0
    2.1714    1.1834    0.6568 C   0  0  0  0  0  0  0  0  0  0  0  0
    1.9275    2.2103    1.2773 O   0  0  0  0  0  0  0  0  0  0  0  0
    3.4409    0.9083    0.2279 N   0  0  0  0  0  0  0  0  0  0  0  0
   -0.2201    0.6667    0.2541 C   0  0  0  0  0  0  0  0  0  0  0  0
   -1.2679   -0.2088   -0.0701 C   0  0  0  0  0  0  0  0  0  0  0  0
   -2.6865    0.2912   -0.1390 C   0  0  0  0  0  0  0  0  0  0  0  0
   -3.1509    0.7781   -1.8224 S   0  0  0  0  0  0  0  0  0  0  0  0
   -1.7612   -2.2443   -0.6183 H   0  0  0  0  0  0  0  0  0  0  0  0
    0.5658   -3.0563   -0.4961 H   0  0  0  0  0  0  0  0  0  0  0  0
    2.3968   -1.5220    0.1109 H   0  0  0  0  0  0  0  0  0  0  0  0
    3.6151    0.2566   -0.5235 H   0  0  0  0  0  0  0  0  0  0  0  0
    4.1152    1.6519    0.3592 H   0  0  0  0  0  0  0  0  0  0  0  0
   -0.4311    1.7147    0.4642 H   0  0  0  0  0  0  0  0  0  0  0  0
   -2.8200    1.1507    0.5271 H   0  0  0  0  0  0  0  0  0  0  0  0
   -3.3759   -0.4854    0.2102 H   0  0  0  0  0  0  0  0  0  0  0  0
   -4.3900    1.1900   -1.5199 H   0  0  0  0  0  0  0  0  0  0  0  0
  1  2  1  0
  2  3  2  0
  3  4  1  0
  4  5  1  0
  5  6  2  0
  5  7  1  0
  4  8  2  0
  8  9  1  0
  9 10  1  0
 10 11  1  0
  9  1  2  0
  1 12  1  0
  2 13  1  0
  3 14  1  0
  7 15  1  0
  7 16  1  0
  8 17  1  0
 10 18  1  0
 10 19  1  0
 11 20  1  0
M  END
>  <ofe-name>  (177) 
lig_0176

$$$$
lig_0177
     RDKit          3D

 28 28  0  0  0  0  0  0  0  0999 V2000
    0.1371    1.4278    0.9949 C   0  0  0  0  0  0  0  0  0  0  0  0
    1.4913    1.5993    1.3027 C   0  0  0  0  0  0  0  0  0  0  0  0
    2.4370    0.6750    0.8645 C   0  0  0  0  0  0  0  0  0  0  0  0
    2.0279   -0.4248    0.1080 C   0  0  0  0  0  0  0  0  0  0  0  0
    2.9909   -1.4450   -0.3873 C   0  0  0  0  0  0  0  0  0  0  0  0
    2.6338   -2.5744   -0.6976 O   0  0  0  0  0  0  0  0  0  0  0  0
    4.2977   -1.0644   -0.5261 N   0  0  0  0  0  0  0  0  0  0  0  0
    0.6659   -0.5980   -0.1837 C   0  0  0  0  0  0  0  0  0  0  0  0
   -0.3094    0.3249    0.2484 C   0  0  0  0  0  0  0  0  0  0  0  0
   -1.7916    0.0979   -0.0983 C   0  0  0  0  0  0  0  0  0  0  0  0
   -2.7343    1.1969    0.4421 C   0  0  0  0  0  0  0  0  0  0  0  0
   -1.9668    0.0609   -1.6319 C   0  0  0  0  0  0  0  0  0  0  0  0
   -2.2652   -1.2443    0.5000 C   0  0  0  0  0  0  0  0  0  0  0  0
   -0.5565    2.1785    1.3649 H   0  0  0  0  0  0  0  0  0  0  0  0
    1.8036    2.4556    1.8961 H   0  0  0  0  0  0  0  0  0  0  0  0
    3.4766    0.8139    1.1435 H   0  0  0  0  0  0  0  0  0  0  0  0
    4.8991   -1.7330   -0.9908 H   0  0  0  0  0  0  0  0  0  0  0  0
    4.5672   -0.0926   -0.5700 H   0  0  0  0  0  0  0  0  0  0  0  0
    0.3711   -1.4732   -0.7617 H   0  0  0  0  0  0  0  0  0  0  0  0
   -3.7766    0.9928    0.1689 H   0  0  0  0  0  0  0  0  0  0  0  0
   -2.4815    2.1822    0.0334 H   0  0  0  0  0  0  0  0  0  0  0  0
   -2.6952    1.2603    1.5359 H   0  0  0  0  0  0  0  0  0  0  0  0
   -1.6099    0.9899   -2.0922 H   0  0  0  0  0  0  0  0  0  0  0  0
   -3.0209   -0.0639   -1.9064 H   0  0  0  0  0  0  0  0  0  0  0  0
   -1.4165   -0.7668   -2.0925 H   0  0  0  0  0  0  0  0  0  0  0  0
   -1.7202   -2.0989    0.0844 H   0  0  0  0  0  0  0  0  0  0  0  0
   -3.3292   -1.4139    0.2973 H   0  0  0  0  0  0  0  0  0  0  0  0
   -2.1256   -1.2625    1.5874 H   0  0  0  0  0  0  0  0  0  0  0  0
  1  2  1  0
  2  3  2  0
  3  4  1  0
  4  5  1  0
  5  6  2  0
  5  7  1  0
  4  8  2  0
  8  9  1  0
  9 10  1  0
 10 11  1  0
 10 12  1  0
 10 13  1  0
  9  1  2  0
  1 14  1  0
  2 15  1  0
  3 16  1  0
  7 17  1  0
  7 18  1  0
  8 19  1  0
 11 20  1  0
 11 21  1  0
 11 22  1  0
 12 23  1  0
 12 24  1  0
 12 25  1  0
 13 26  1  0
 13 27  1  0
 13 28  1  0
M  END
>  <ofe-name>  (178) 
lig_0177

$$$$
lig_0178
     RDKit          3D

 20 20  0  0  0  0  0  0  0  0999 V2000
   -1.1788    1.0909   -0.0086 C   0  0  0  0  0  0  0  0  0  0  0  0
   -0.0047    1.7966   -0.2884 C   0  0  0  0  0  0  0  0  0  0  0  0
    1.2101    1.1209   -0.4125 C   0  0  0  0  0  0  0  0  0  0  0  0
    1.2529   -0.2681   -0.2506 C   0  0  0  0  0  0  0  0  0  0  0  0
    2.5192   -1.0370   -0.3739 C   0  0  0  0  0  0  0  0  0  0  0  0
    2.5281   -2.2314   -0.6410 O   0  0  0  0  0  0  0  0  0  0  0  0
    3.6879   -0.3661   -0.1374 N   0  0  0  0  0  0  0  0  0  0  0  0
    0.0712   -0.9708    0.0144 C   0  0  0  0  0  0  0  0  0  0  0  0
   -1.1463   -0.2966    0.1405 C   0  0  0  0  0  0  0  0  0  0  0  0
   -2.2193   -1.1005    0.4095 O   0  0  0  0  0  0  0  0  0  0  0  0
   -3.4897   -0.4704    0.5119 C   0  0  0  0  0  0  0  0  0  0  0  0
   -2.1028    1.6531    0.0800 H   0  0  0  0  0  0  0  0  0  0  0  0
   -0.0413    2.8758   -0.4182 H   0  0  0  0  0  0  0  0  0  0  0  0
    2.1033    1.6861   -0.6610 H   0  0  0  0  0  0  0  0  0  0  0  0
    4.5181   -0.9439   -0.0928 H   0  0  0  0  0  0  0  0  0  0  0  0
    3.7064    0.5067    0.3695 H   0  0  0  0  0  0  0  0  0  0  0  0
    0.0969   -2.0533    0.1262 H   0  0  0  0  0  0  0  0  0  0  0  0
   -3.7645    0.0203   -0.4277 H   0  0  0  0  0  0  0  0  0  0  0  0
   -3.5132    0.2354    1.3487 H   0  0  0  0  0  0  0  0  0  0  0  0
   -4.2335   -1.2478    0.7113 H   0  0  0  0  0  0  0  0  0  0  0  0
  1  2  2  0
  2  3  1  0
  3  4  2  0
  4  5  1  0
  5  6  2  0
  5  7  1  0
  4  8  1  0
  8  9  2  0
  9 10  1  0
 10 11  1  0
  9  1  1  0
  1 12  1  0
  2 13  1  0
  3 14  1  0
  7 15  1  0
  7 16  1  0
  8 17  1  0
 11 18  1  0
 11 19  1  0
 11 20  1  0
M  END
>  <ofe-name>  (179) 
lig_0178

$$$$
lig_0179
     RDKit          3D

 23 23  0  0  0  0  0  0  0  0999 V2000
    0.2497   -2.0681    0.6122 C   0  0  0  0  0  0  0  0  0  0  0  0
   -1.1250   -2.2409    0.7791 C   0  0  0  0  0  0  0  0  0  0  0  0
   -2.0036   -1.2291    0.3950 C   0  0  0  0  0  0  0  0  0  0  0  0
   -1.5003   -0.0406   -0.1474 C   0  0  0  0  0  0  0  0  0  0  0  0
   -2.3922    1.0730   -0.5678 C   0  0  0  0  0  0  0  0  0  0  0  0
   -2.0259    1.9234   -1.3691 O   0  0  0  0  0  0  0  0  0  0  0  0
   -3.6320    1.1416    0.0054 N   0  0  0  0  0  0  0  0  0  0  0  0
   -0.1169    0.1187   -0.3269 C   0  0  0  0  0  0  0  0  0  0  0  0
    0.7625   -0.8949    0.0508 C   0  0  0  0  0  0  0  0  0  0  0  0
    2.1245   -0.8679   -0.0552 O   0  0  0  0  0  0  0  0  0  0  0  0
    2.7373    0.2014   -0.7755 C   0  0  0  0  0  0  0  0  0  0  0  0
    3.0663    1.3566    0.1540 C   0  0  0  0  0  0  0  0  0  0  0  0
    0.9317   -2.8609    0.9122 H   0  0  0  0  0  0  0  0  0  0  0  0
   -1.5066   -3.1676    1.2002 H   0  0  0  0  0  0  0  0  0  0  0  0
   -3.0715   -1.3926    0.5029 H   0  0  0  0  0  0  0  0  0  0  0  0
   -3.8547    0.6523    0.8599 H   0  0  0  0  0  0  0  0  0  0  0  0
   -4.1629    1.9790   -0.1995 H   0  0  0  0  0  0  0  0  0  0  0  0
    0.2401    1.0510   -0.7532 H   0  0  0  0  0  0  0  0  0  0  0  0
    2.1495    0.5166   -1.6446 H   0  0  0  0  0  0  0  0  0  0  0  0
    3.6764   -0.1958   -1.1777 H   0  0  0  0  0  0  0  0  0  0  0  0
    2.1623    1.7851    0.5966 H   0  0  0  0  0  0  0  0  0  0  0  0
    3.6929    1.0134    0.9840 H   0  0  0  0  0  0  0  0  0  0  0  0
    3.5984    2.1461   -0.3844 H   0  0  0  0  0  0  0  0  0  0  0  0
  1  2  2  0
  2  3  1  0
  3  4  2  0
  4  5  1  0
  5  6  2  0
  5  7  1  0
  4  8  1  0
  8  9  2  0
  9 10  1  0
 10 11  1  0
 11 12  1  0
  9  1  1  0
  1 13  1  0
  2 14  1  0
  3 15  1  0
  7 16  1  0
  7 17  1  0
  8 18  1  0
 11 19  1  0
 11 20  1  0
 12 21  1  0
 12 22  1  0
 12 23  1  0
M  END
>  <ofe-name>  (180) 
lig_0179

$$$$
lig_0180
     RDKit          3D

 23 23  0  0  0  0  0  0  0  0999 V2000
    0.4729    1.3972    1.4025 C   0  0  0  0  0  0  0  0  0  0  0  0
   -0.6153    2.2713    1.3870 C   0  0  0  0  0  0  0  0  0  0  0  0
   -1.6554    2.0684    0.4827 C   0  0  0  0  0  0  0  0  0  0  0  0
   -1.6118    0.9907   -0.4096 C   0  0  0  0  0  0  0  0  0  0  0  0
   -2.7476    0.8210   -1.3580 C   0  0  0  0  0  0  0  0  0  0  0  0
   -3.5497    1.7243   -1.5639 O   0  0  0  0  0  0  0  0  0  0  0  0
   -2.8940   -0.3897   -1.9754 N   0  0  0  0  0  0  0  0  0  0  0  0
   -0.5078    0.1253   -0.3980 C   0  0  0  0  0  0  0  0  0  0  0  0
    0.5336    0.3151    0.5147 C   0  0  0  0  0  0  0  0  0  0  0  0
    1.6682   -0.5202    0.5940 N   0  0  0  0  0  0  0  0  0  0  0  0
    1.8991   -1.6917   -0.1055 C   0  0  0  0  0  0  0  0  0  0  0  0
    1.1342   -2.2430   -0.8890 O   0  0  0  0  0  0  0  0  0  0  0  0
    3.2393   -2.2983    0.2265 C   0  0  0  0  0  0  0  0  0  0  0  0
    1.2704    1.5769    2.1195 H   0  0  0  0  0  0  0  0  0  0  0  0
   -0.6536    3.1106    2.0774 H   0  0  0  0  0  0  0  0  0  0  0  0
   -2.5022    2.7527    0.4726 H   0  0  0  0  0  0  0  0  0  0  0  0
   -3.7196   -0.5101   -2.5474 H   0  0  0  0  0  0  0  0  0  0  0  0
   -2.3850   -1.2206   -1.7087 H   0  0  0  0  0  0  0  0  0  0  0  0
   -0.4551   -0.6753   -1.1251 H   0  0  0  0  0  0  0  0  0  0  0  0
    2.3709   -0.2507    1.2717 H   0  0  0  0  0  0  0  0  0  0  0  0
    3.1667   -2.8438    1.1713 H   0  0  0  0  0  0  0  0  0  0  0  0
    4.0078   -1.5220    0.3035 H   0  0  0  0  0  0  0  0  0  0  0  0
    3.5340   -2.9880   -0.5706 H   0  0  0  0  0  0  0  0  0  0  0  0
  1  2  1  0
  2  3  2  0
  3  4  1  0
  4  5  1  0
  5  6  2  0
  5  7  1  0
  4  8  2  0
  8  9  1  0
  9 10  1  0
 10 11  1  0
 11 12  2  0
 11 13  1  0
  9  1  2  0
  1 14  1  0
  2 15  1  0
  3 16  1  0
  7 17  1  0
  7 18  1  0
  8 19  1  0
 10 20  1  0
 13 21  1  0
 13 22  1  0
 13 23  1  0
M  END
>  <ofe-name>  (181) 
lig_0180

$$$$
lig_0181
     RDKit          3D

 26 27  0  0  0  0  0  0  0  0999 V2000
    0.2420   -1.9709   -0.0658 C   0  0  0  0  0  0  0  0  0  0  0  0
    1.5360   -2.4638   -0.2455 C   0  0  0  0  0  0  0  0  0  0  0  0
    2.6013   -1.5795   -0.4021 C   0  0  0  0  0  0  0  0  0  0  0  0
    2.3786   -0.1986   -0.3716 C   0  0  0  0  0  0  0  0  0  0  0  0
    3.5468    0.7056   -0.5468 C   0  0  0  0  0  0  0  0  0  0  0  0
    4.5931    0.3160   -1.0497 O   0  0  0  0  0  0  0  0  0  0  0  0
    3.4304    1.9888   -0.0882 N   0  0  0  0  0  0  0  0  0  0  0  0
    1.0749    0.2902   -0.2036 C   0  0  0  0  0  0  0  0  0  0  0  0
   -0.0110   -0.5892   -0.0449 C   0  0  0  0  0  0  0  0  0  0  0  0
   -1.3784   -0.0750    0.1289 C   0  0  0  0  0  0  0  0  0  0  0  0
   -1.6923    0.8051    1.1778 C   0  0  0  0  0  0  0  0  0  0  0  0
   -2.9909    1.2945    1.3421 C   0  0  0  0  0  0  0  0  0  0  0  0
   -3.9971    0.9121    0.4585 C   0  0  0  0  0  0  0  0  0  0  0  0
   -3.7065    0.0402   -0.5877 C   0  0  0  0  0  0  0  0  0  0  0  0
   -2.4079   -0.4496   -0.7501 C   0  0  0  0  0  0  0  0  0  0  0  0
   -0.5768   -2.6772    0.0623 H   0  0  0  0  0  0  0  0  0  0  0  0
    1.7126   -3.5364   -0.2644 H   0  0  0  0  0  0  0  0  0  0  0  0
    3.6077   -1.9683   -0.5470 H   0  0  0  0  0  0  0  0  0  0  0  0
    2.7128    2.2664    0.5649 H   0  0  0  0  0  0  0  0  0  0  0  0
    4.2788    2.5406   -0.1082 H   0  0  0  0  0  0  0  0  0  0  0  0
    0.8829    1.3595   -0.2331 H   0  0  0  0  0  0  0  0  0  0  0  0
   -0.9245    1.1065    1.8872 H   0  0  0  0  0  0  0  0  0  0  0  0
   -3.2163    1.9712    2.1622 H   0  0  0  0  0  0  0  0  0  0  0  0
   -5.0073    1.2924    0.5855 H   0  0  0  0  0  0  0  0  0  0  0  0
   -4.4891   -0.2585   -1.2805 H   0  0  0  0  0  0  0  0  0  0  0  0
   -2.1999   -1.1220   -1.5802 H   0  0  0  0  0  0  0  0  0  0  0  0
  1  2  1  0
  2  3  2  0
  3  4  1  0
  4  5  1  0
  5  6  2  0
  5  7  1  0
  4  8  2  0
  8  9  1  0
  9 10  1  0
 10 11  2  0
 11 12  1  0
 12 13  2  0
 13 14  1  0
 14 15  2  0
  9  1  2  0
 15 10  1  0
  1 16  1  0
  2 17  1  0
  3 18  1  0
  7 19  1  0
  7 20  1  0
  8 21  1  0
 11 22  1  0
 12 23  1  0
 13 24  1  0
 14 25  1  0
 15 26  1  0
M  END
>  <ofe-name>  (182) 
lig_0181

$$$$
lig_0182
     RDKit          3D

 14 14  0  0  0  0  0  0  0  0999 V2000
    1.1208    1.1744   -0.0408 C   0  0  0  0  0  0  0  0  0  0  0  0
   -0.1795    1.6796   -0.0081 C   0  0  0  0  0  0  0  0  0  0  0  0
   -1.2641    0.8086    0.1025 C   0  0  0  0  0  0  0  0  0  0  0  0
   -1.0515   -0.5704    0.1793 C   0  0  0  0  0  0  0  0  0  0  0  0
   -2.4240   -1.6934    0.3361 S   0  0  0  0  0  0  0  0  0  0  0  0
    0.2540   -1.0725    0.1537 C   0  0  0  0  0  0  0  0  0  0  0  0
    1.3429   -0.2029    0.0357 C   0  0  0  0  0  0  0  0  0  0  0  0
    3.0100   -0.8267    0.0078 S   0  0  0  0  0  0  0  0  0  0  0  0
    1.9579    1.8642   -0.1236 H   0  0  0  0  0  0  0  0  0  0  0  0
   -0.3462    2.7525   -0.0644 H   0  0  0  0  0  0  0  0  0  0  0  0
   -2.2701    1.2195    0.1357 H   0  0  0  0  0  0  0  0  0  0  0  0
   -3.2991   -0.9786   -0.3858 H   0  0  0  0  0  0  0  0  0  0  0  0
    0.4180   -2.1447    0.2301 H   0  0  0  0  0  0  0  0  0  0  0  0
    2.7310   -2.0099   -0.5582 H   0  0  0  0  0  0  0  0  0  0  0  0
  1  2  1  0
  2  3  2  0
  3  4  1  0
  4  5  1  0
  4  6  2  0
  6  7  1  0
  7  8  1  0
  7  1  2  0
  1  9  1  0
  2 10  1  0
  3 11  1  0
  5 12  1  0
  6 13  1  0
  8 14  1  0
M  END
>  <ofe-name>  (183) 
lig_0182

$$$$
lig_0183
     RDKit          3D

 17 17  0  0  0  0  0  0  0  0999 V2000
   -0.1967   -1.4767    0.0492 C   0  0  0  0  0  0  0  0  0  0  0  0
   -1.5587   -1.3092    0.2997 C   0  0  0  0  0  0  0  0  0  0  0  0
   -2.1194   -0.0318    0.2902 C   0  0  0  0  0  0  0  0  0  0  0  0
   -1.3216    1.0836    0.0285 C   0  0  0  0  0  0  0  0  0  0  0  0
   -2.0453    2.7090    0.0304 S   0  0  0  0  0  0  0  0  0  0  0  0
    0.0453    0.9140   -0.2164 C   0  0  0  0  0  0  0  0  0  0  0  0
    0.6197   -0.3678   -0.2152 C   0  0  0  0  0  0  0  0  0  0  0  0
    2.0946   -0.5464   -0.4636 C   0  0  0  0  0  0  0  0  0  0  0  0
    3.0339   -0.6644    1.0823 S   0  0  0  0  0  0  0  0  0  0  0  0
    0.2283   -2.4787    0.0708 H   0  0  0  0  0  0  0  0  0  0  0  0
   -2.1833   -2.1742    0.5085 H   0  0  0  0  0  0  0  0  0  0  0  0
   -3.1818    0.0843    0.4917 H   0  0  0  0  0  0  0  0  0  0  0  0
   -1.4195    3.1563   -1.0677 H   0  0  0  0  0  0  0  0  0  0  0  0
    0.6723    1.7832   -0.4037 H   0  0  0  0  0  0  0  0  0  0  0  0
    2.4857    0.2935   -1.0484 H   0  0  0  0  0  0  0  0  0  0  0  0
    2.2690   -1.4502   -1.0577 H   0  0  0  0  0  0  0  0  0  0  0  0
    2.5774    0.4754    1.6214 H   0  0  0  0  0  0  0  0  0  0  0  0
  1  2  1  0
  2  3  2  0
  3  4  1  0
  4  5  1  0
  4  6  2  0
  6  7  1  0
  7  8  1  0
  8  9  1  0
  7  1  2  0
  1 10  1  0
  2 11  1  0
  3 12  1  0
  5 13  1  0
  6 14  1  0
  8 15  1  0
  8 16  1  0
  9 17  1  0
M  END
>  <ofe-name>  (184) 
lig_0183

$$$$
lig_0184
     RDKit          3D

 25 25  0  0  0  0  0  0  0  0999 V2000
    0.7371   -1.1870    1.0076 C   0  0  0  0  0  0  0  0  0  0  0  0
    2.1051   -1.4337    1.1448 C   0  0  0  0  0  0  0  0  0  0  0  0
    3.0269   -0.6568    0.4497 C   0  0  0  0  0  0  0  0  0  0  0  0
    2.5823    0.3705   -0.3802 C   0  0  0  0  0  0  0  0  0  0  0  0
    3.7675    1.3571   -1.2713 S   0  0  0  0  0  0  0  0  0  0  0  0
    1.2072    0.6091   -0.5195 C   0  0  0  0  0  0  0  0  0  0  0  0
    0.2536   -0.1614    0.1717 C   0  0  0  0  0  0  0  0  0  0  0  0
   -1.2615    0.0764    0.0408 C   0  0  0  0  0  0  0  0  0  0  0  0
   -1.9411   -1.1972   -0.5070 C   0  0  0  0  0  0  0  0  0  0  0  0
   -1.6337    1.2370   -0.9096 C   0  0  0  0  0  0  0  0  0  0  0  0
   -1.8555    0.4136    1.4256 C   0  0  0  0  0  0  0  0  0  0  0  0
    0.0474   -1.8165    1.5664 H   0  0  0  0  0  0  0  0  0  0  0  0
    2.4498   -2.2345    1.7939 H   0  0  0  0  0  0  0  0  0  0  0  0
    4.0890   -0.8590    0.5616 H   0  0  0  0  0  0  0  0  0  0  0  0
    3.1422    2.5315   -1.1062 H   0  0  0  0  0  0  0  0  0  0  0  0
    0.8930    1.4078   -1.1853 H   0  0  0  0  0  0  0  0  0  0  0  0
   -1.5197   -1.4823   -1.4784 H   0  0  0  0  0  0  0  0  0  0  0  0
   -3.0180   -1.0434   -0.6428 H   0  0  0  0  0  0  0  0  0  0  0  0
   -1.8226   -2.0529    0.1666 H   0  0  0  0  0  0  0  0  0  0  0  0
   -1.2777    1.0531   -1.9300 H   0  0  0  0  0  0  0  0  0  0  0  0
   -1.2133    2.1897   -0.5670 H   0  0  0  0  0  0  0  0  0  0  0  0
   -2.7211    1.3672   -0.9671 H   0  0  0  0  0  0  0  0  0  0  0  0
   -2.9295    0.6224    1.3549 H   0  0  0  0  0  0  0  0  0  0  0  0
   -1.7360   -0.4085    2.1396 H   0  0  0  0  0  0  0  0  0  0  0  0
   -1.3716    1.2976    1.8576 H   0  0  0  0  0  0  0  0  0  0  0  0
  1  2  1  0
  2  3  2  0
  3  4  1  0
  4  5  1  0
  4  6  2  0
  6  7  1  0
  7  8  1  0
  8  9  1  0
  8 10  1  0
  8 11  1  0
  7  1  2  0
  1 12  1  0
  2 13  1  0
  3 14  1  0
  5 15  1  0
  6 16  1  0
  9 17  1  0
  9 18  1  0
  9 19  1  0
 10 20  1  0
 10 21  1  0
 10 22  1  0
 11 23  1  0
 11 24  1  0
 11 25  1  0
M  END
>  <ofe-name>  (185) 
lig_0184

$$$$
lig_0185
     RDKit          3D

 17 17  0  0  0  0  0  0  0  0999 V2000
   -0.5633   -0.9263    0.1809 C   0  0  0  0  0  0  0  0  0  0  0  0
    0.6219   -1.6521    0.3279 C   0  0  0  0  0  0  0  0  0  0  0  0
    1.8565   -1.0091    0.2316 C   0  0  0  0  0  0  0  0  0  0  0  0
    1.9118    0.3649   -0.0091 C   0  0  0  0  0  0  0  0  0  0  0  0
    3.4783    1.1981   -0.1420 S   0  0  0  0  0  0  0  0  0  0  0  0
    0.7237    1.0846   -0.1616 C   0  0  0  0  0  0  0  0  0  0  0  0
   -0.5171    0.4462   -0.0661 C   0  0  0  0  0  0  0  0  0  0  0  0
   -1.5970    1.2696   -0.2315 O   0  0  0  0  0  0  0  0  0  0  0  0
   -2.8834    0.6684   -0.1564 C   0  0  0  0  0  0  0  0  0  0  0  0
   -1.5031   -1.4621    0.2621 H   0  0  0  0  0  0  0  0  0  0  0  0
    0.5819   -2.7224    0.5151 H   0  0  0  0  0  0  0  0  0  0  0  0
    2.7679   -1.5916    0.3405 H   0  0  0  0  0  0  0  0  0  0  0  0
    4.0739    0.5677    0.8805 H   0  0  0  0  0  0  0  0  0  0  0  0
    0.7529    2.1543   -0.3568 H   0  0  0  0  0  0  0  0  0  0  0  0
   -3.0164   -0.0797   -0.9449 H   0  0  0  0  0  0  0  0  0  0  0  0
   -3.6291    1.4537   -0.3137 H   0  0  0  0  0  0  0  0  0  0  0  0
   -3.0594    0.2357    0.8339 H   0  0  0  0  0  0  0  0  0  0  0  0
  1  2  2  0
  2  3  1  0
  3  4  2  0
  4  5  1  0
  4  6  1  0
  6  7  2  0
  7  8  1  0
  8  9  1  0
  7  1  1  0
  1 10  1  0
  2 11  1  0
  3 12  1  0
  5 13  1  0
  6 14  1  0
  9 15  1  0
  9 16  1  0
  9 17  1  0
M  END
>  <ofe-name>  (186) 
lig_0185

$$$$
lig_0186
     RDKit          3D

 20 20  0  0  0  0  0  0  0  0999 V2000
   -0.7184   -1.8748   -0.0536 C   0  0  0  0  0  0  0  0  0  0  0  0
   -2.0791   -1.8209    0.2479 C   0  0  0  0  0  0  0  0  0  0  0  0
   -2.7067   -0.5859    0.3971 C   0  0  0  0  0  0  0  0  0  0  0  0
   -1.9737    0.5927    0.2429 C   0  0  0  0  0  0  0  0  0  0  0  0
   -2.7845    2.1658    0.4453 S   0  0  0  0  0  0  0  0  0  0  0  0
   -0.6055    0.5324   -0.0542 C   0  0  0  0  0  0  0  0  0  0  0  0
    0.0268   -0.7023   -0.2086 C   0  0  0  0  0  0  0  0  0  0  0  0
    1.3474   -0.9092   -0.4935 O   0  0  0  0  0  0  0  0  0  0  0  0
    2.1804    0.2137   -0.7764 C   0  0  0  0  0  0  0  0  0  0  0  0
    2.7882    0.7710    0.4990 C   0  0  0  0  0  0  0  0  0  0  0  0
   -0.2309   -2.8405   -0.1672 H   0  0  0  0  0  0  0  0  0  0  0  0
   -2.6464   -2.7399    0.3682 H   0  0  0  0  0  0  0  0  0  0  0  0
   -3.7671   -0.5515    0.6354 H   0  0  0  0  0  0  0  0  0  0  0  0
   -2.2671    2.7435   -0.6485 H   0  0  0  0  0  0  0  0  0  0  0  0
   -0.0535    1.4608   -0.1458 H   0  0  0  0  0  0  0  0  0  0  0  0
    2.9930   -0.1572   -1.4116 H   0  0  0  0  0  0  0  0  0  0  0  0
    1.6666    0.9805   -1.3663 H   0  0  0  0  0  0  0  0  0  0  0  0
    3.3292   -0.0128    1.0395 H   0  0  0  0  0  0  0  0  0  0  0  0
    2.0185    1.1497    1.1780 H   0  0  0  0  0  0  0  0  0  0  0  0
    3.4829    1.5848    0.2723 H   0  0  0  0  0  0  0  0  0  0  0  0
  1  2  2  0
  2  3  1  0
  3  4  2  0
  4  5  1  0
  4  6  1  0
  6  7  2  0
  7  8  1  0
  8  9  1  0
  9 10  1  0
  7  1  1  0
  1 11  1  0
  2 12  1  0
  3 13  1  0
  5 14  1  0
  6 15  1  0
  9 16  1  0
  9 17  1  0
 10 18  1  0
 10 19  1  0
 10 20  1  0
M  END
>  <ofe-name>  (187) 
lig_0186

$$$$
lig_0187
     RDKit          3D

 20 20  0  0  0  0  0  0  0  0999 V2000
    0.4316   -1.3033   -0.1665 C   0  0  0  0  0  0  0  0  0  0  0  0
    1.7558   -1.7222   -0.0067 C   0  0  0  0  0  0  0  0  0  0  0  0
    2.7308   -0.8237    0.4238 C   0  0  0  0  0  0  0  0  0  0  0  0
    2.3835    0.4987    0.7006 C   0  0  0  0  0  0  0  0  0  0  0  0
    3.6114    1.6684    1.2425 S   0  0  0  0  0  0  0  0  0  0  0  0
    1.0576    0.9152    0.5320 C   0  0  0  0  0  0  0  0  0  0  0  0
    0.0706    0.0180    0.1000 C   0  0  0  0  0  0  0  0  0  0  0  0
   -1.2400    0.5215   -0.0410 N   0  0  0  0  0  0  0  0  0  0  0  0
   -2.3708   -0.1706   -0.4357 C   0  0  0  0  0  0  0  0  0  0  0  0
   -2.4487   -1.3615   -0.7147 O   0  0  0  0  0  0  0  0  0  0  0  0
   -3.5956    0.7098   -0.4677 C   0  0  0  0  0  0  0  0  0  0  0  0
   -0.2935   -2.0368   -0.5056 H   0  0  0  0  0  0  0  0  0  0  0  0
    2.0227   -2.7539   -0.2234 H   0  0  0  0  0  0  0  0  0  0  0  0
    3.7557   -1.1682    0.5335 H   0  0  0  0  0  0  0  0  0  0  0  0
    4.3955    0.7911    1.8859 H   0  0  0  0  0  0  0  0  0  0  0  0
    0.8001    1.9503    0.7428 H   0  0  0  0  0  0  0  0  0  0  0  0
   -1.3625    1.5016    0.1810 H   0  0  0  0  0  0  0  0  0  0  0  0
   -4.3356    0.2778   -1.1476 H   0  0  0  0  0  0  0  0  0  0  0  0
   -3.3481    1.7119   -0.8297 H   0  0  0  0  0  0  0  0  0  0  0  0
   -4.0204    0.7758    0.5373 H   0  0  0  0  0  0  0  0  0  0  0  0
  1  2  1  0
  2  3  2  0
  3  4  1  0
  4  5  1  0
  4  6  2  0
  6  7  1  0
  7  8  1  0
  8  9  1  0
  9 10  2  0
  9 11  1  0
  7  1  2  0
  1 12  1  0
  2 13  1  0
  3 14  1  0
  5 15  1  0
  6 16  1  0
  8 17  1  0
 11 18  1  0
 11 19  1  0
 11 20  1  0
M  END
>  <ofe-name>  (188) 
lig_0187

$$$$
lig_0188
     RDKit          3D

 23 24  0  0  0  0  0  0  0  0999 V2000
    1.0447   -1.5872   -0.1927 C   0  0  0  0  0  0  0  0  0  0  0  0
    2.4124   -1.8576   -0.1170 C   0  0  0  0  0  0  0  0  0  0  0  0
    3.3109   -0.8316    0.1714 C   0  0  0  0  0  0  0  0  0  0  0  0
    2.8469    0.4680    0.3805 C   0  0  0  0  0  0  0  0  0  0  0  0
    4.0051    1.7650    0.7615 S   0  0  0  0  0  0  0  0  0  0  0  0
    1.4739    0.7315    0.3089 C   0  0  0  0  0  0  0  0  0  0  0  0
    0.5514   -0.2897    0.0194 C   0  0  0  0  0  0  0  0  0  0  0  0
   -0.8911   -0.0066   -0.0565 C   0  0  0  0  0  0  0  0  0  0  0  0
   -1.3892    0.9889   -0.9136 C   0  0  0  0  0  0  0  0  0  0  0  0
   -2.7587    1.2581   -0.9858 C   0  0  0  0  0  0  0  0  0  0  0  0
   -3.6536    0.5361   -0.2004 C   0  0  0  0  0  0  0  0  0  0  0  0
   -3.1807   -0.4547    0.6561 C   0  0  0  0  0  0  0  0  0  0  0  0
   -1.8111   -0.7237    0.7264 C   0  0  0  0  0  0  0  0  0  0  0  0
    0.3598   -2.3996   -0.4291 H   0  0  0  0  0  0  0  0  0  0  0  0
    2.7765   -2.8680   -0.2841 H   0  0  0  0  0  0  0  0  0  0  0  0
    4.3736   -1.0550    0.2306 H   0  0  0  0  0  0  0  0  0  0  0  0
    3.3119    2.7677    0.2034 H   0  0  0  0  0  0  0  0  0  0  0  0
    1.1075    1.7389    0.4962 H   0  0  0  0  0  0  0  0  0  0  0  0
   -0.7088    1.5570   -1.5447 H   0  0  0  0  0  0  0  0  0  0  0  0
   -3.1248    2.0299   -1.6579 H   0  0  0  0  0  0  0  0  0  0  0  0
   -4.7186    0.7453   -0.2558 H   0  0  0  0  0  0  0  0  0  0  0  0
   -3.8760   -1.0182    1.2729 H   0  0  0  0  0  0  0  0  0  0  0  0
   -1.4618   -1.4946    1.4106 H   0  0  0  0  0  0  0  0  0  0  0  0
  1  2  1  0
  2  3  2  0
  3  4  1  0
  4  5  1  0
  4  6  2  0
  6  7  1  0
  7  8  1  0
  8  9  2  0
  9 10  1  0
 10 11  2  0
 11 12  1  0
 12 13  2  0
  7  1  2  0
 13  8  1  0
  1 14  1  0
  2 15  1  0
  3 16  1  0
  5 17  1  0
  6 18  1  0
  9 19  1  0
 10 20  1  0
 11 21  1  0
 12 22  1  0
 13 23  1  0
M  END
>  <ofe-name>  (189) 
lig_0188

$$$$
lig_0189
     RDKit          3D

 20 20  0  0  0  0  0  0  0  0999 V2000
    1.1182    1.1689   -0.8867 C   0  0  0  0  0  0  0  0  0  0  0  0
   -0.1319    1.6500   -1.2749 C   0  0  0  0  0  0  0  0  0  0  0  0
   -1.2926    0.9937   -0.8661 C   0  0  0  0  0  0  0  0  0  0  0  0
   -1.2162   -0.1529   -0.0641 C   0  0  0  0  0  0  0  0  0  0  0  0
   -2.4693   -0.8526    0.3910 C   0  0  0  0  0  0  0  0  0  0  0  0
   -3.0947   -0.1886    1.9567 S   0  0  0  0  0  0  0  0  0  0  0  0
    0.0469   -0.6228    0.3299 C   0  0  0  0  0  0  0  0  0  0  0  0
    1.2220    0.0242   -0.0849 C   0  0  0  0  0  0  0  0  0  0  0  0
    2.5706   -0.4864    0.3480 C   0  0  0  0  0  0  0  0  0  0  0  0
    3.1200    0.2629    1.9036 S   0  0  0  0  0  0  0  0  0  0  0  0
    2.0127    1.7008   -1.2034 H   0  0  0  0  0  0  0  0  0  0  0  0
   -0.2021    2.5445   -1.8884 H   0  0  0  0  0  0  0  0  0  0  0  0
   -2.2599    1.3903   -1.1669 H   0  0  0  0  0  0  0  0  0  0  0  0
   -2.2800   -1.9250    0.5119 H   0  0  0  0  0  0  0  0  0  0  0  0
   -3.2511   -0.7587   -0.3709 H   0  0  0  0  0  0  0  0  0  0  0  0
   -4.1534   -1.0045    2.0512 H   0  0  0  0  0  0  0  0  0  0  0  0
    0.1159   -1.4961    0.9767 H   0  0  0  0  0  0  0  0  0  0  0  0
    2.5404   -1.5748    0.4707 H   0  0  0  0  0  0  0  0  0  0  0  0
    3.3176   -0.2815   -0.4270 H   0  0  0  0  0  0  0  0  0  0  0  0
    4.2870   -0.3913    1.9791 H   0  0  0  0  0  0  0  0  0  0  0  0
  1  2  1  0
  2  3  2  0
  3  4  1  0
  4  5  1  0
  5  6  1  0
  4  7  2  0
  7  8  1  0
  8  9  1  0
  9 10  1  0
  8  1  2  0
  1 11  1  0
  2 12  1  0
  3 13  1  0
  5 14  1  0
  5 15  1  0
  6 16  1  0
  7 17  1  0
  9 18  1  0
  9 19  1  0
 10 20  1  0
M  END
>  <ofe-name>  (190) 
lig_0189

$$$$
lig_0190
     RDKit          3D

 28 28  0  0  0  0  0  0  0  0999 V2000
   -0.2681   -0.9479   -1.4546 C   0  0  0  0  0  0  0  0  0  0  0  0
    0.9462   -1.4390   -1.9382 C   0  0  0  0  0  0  0  0  0  0  0  0
    2.1379   -1.1003   -1.3059 C   0  0  0  0  0  0  0  0  0  0  0  0
    2.1252   -0.2615   -0.1870 C   0  0  0  0  0  0  0  0  0  0  0  0
    3.4108    0.1044    0.5071 C   0  0  0  0  0  0  0  0  0  0  0  0
    3.8219   -1.0540    1.8393 S   0  0  0  0  0  0  0  0  0  0  0  0
    0.8929    0.2179    0.2961 C   0  0  0  0  0  0  0  0  0  0  0  0
   -0.3260   -0.1099   -0.3247 C   0  0  0  0  0  0  0  0  0  0  0  0
   -1.6842    0.4020    0.1869 C   0  0  0  0  0  0  0  0  0  0  0  0
   -2.3812    1.2211   -0.9211 C   0  0  0  0  0  0  0  0  0  0  0  0
   -2.5787   -0.7963    0.5716 C   0  0  0  0  0  0  0  0  0  0  0  0
   -1.5821    1.3132    1.4311 C   0  0  0  0  0  0  0  0  0  0  0  0
   -1.1784   -1.2384   -1.9744 H   0  0  0  0  0  0  0  0  0  0  0  0
    0.9586   -2.0917   -2.8072 H   0  0  0  0  0  0  0  0  0  0  0  0
    3.0753   -1.4987   -1.6869 H   0  0  0  0  0  0  0  0  0  0  0  0
    4.2370    0.1230   -0.2124 H   0  0  0  0  0  0  0  0  0  0  0  0
    3.3395    1.1148    0.9249 H   0  0  0  0  0  0  0  0  0  0  0  0
    4.9605   -0.4529    2.2109 H   0  0  0  0  0  0  0  0  0  0  0  0
    0.9107    0.8520    1.1790 H   0  0  0  0  0  0  0  0  0  0  0  0
   -3.3369    1.6278   -0.5702 H   0  0  0  0  0  0  0  0  0  0  0  0
   -2.5975    0.6176   -1.8094 H   0  0  0  0  0  0  0  0  0  0  0  0
   -1.7569    2.0642   -1.2400 H   0  0  0  0  0  0  0  0  0  0  0  0
   -2.0983   -1.4174    1.3369 H   0  0  0  0  0  0  0  0  0  0  0  0
   -2.7980   -1.4421   -0.2857 H   0  0  0  0  0  0  0  0  0  0  0  0
   -3.5416   -0.4583    0.9723 H   0  0  0  0  0  0  0  0  0  0  0  0
   -1.1304    0.7875    2.2805 H   0  0  0  0  0  0  0  0  0  0  0  0
   -0.9851    2.2096    1.2269 H   0  0  0  0  0  0  0  0  0  0  0  0
   -2.5734    1.6533    1.7541 H   0  0  0  0  0  0  0  0  0  0  0  0
  1  2  1  0
  2  3  2  0
  3  4  1  0
  4  5  1  0
  5  6  1  0
  4  7  2  0
  7  8  1  0
  8  9  1  0
  9 10  1  0
  9 11  1  0
  9 12  1  0
  8  1  2  0
  1 13  1  0
  2 14  1  0
  3 15  1  0
  5 16  1  0
  5 17  1  0
  6 18  1  0
  7 19  1  0
 10 20  1  0
 10 21  1  0
 10 22  1  0
 11 23  1  0
 11 24  1  0
 11 25  1  0
 12 26  1  0
 12 27  1  0
 12 28  1  0
M  END
>  <ofe-name>  (191) 
lig_0190

$$$$
lig_0191
     RDKit          3D

 20 20  0  0  0  0  0  0  0  0999 V2000
   -0.9694   -0.0808    1.8321 C   0  0  0  0  0  0  0  0  0  0  0  0
    0.2532    0.3822    2.3170 C   0  0  0  0  0  0  0  0  0  0  0  0
    1.2791    0.6965    1.4282 C   0  0  0  0  0  0  0  0  0  0  0  0
    1.0878    0.5539    0.0467 C   0  0  0  0  0  0  0  0  0  0  0  0
    2.2016    0.8806   -0.9139 C   0  0  0  0  0  0  0  0  0  0  0  0
    3.3587   -0.5016   -1.1077 S   0  0  0  0  0  0  0  0  0  0  0  0
   -0.1483    0.0787   -0.4287 C   0  0  0  0  0  0  0  0  0  0  0  0
   -1.1784   -0.2370    0.4603 C   0  0  0  0  0  0  0  0  0  0  0  0
   -2.4195   -0.7023    0.1224 O   0  0  0  0  0  0  0  0  0  0  0  0
   -2.6853   -0.8864   -1.2619 C   0  0  0  0  0  0  0  0  0  0  0  0
   -1.7669   -0.3261    2.5292 H   0  0  0  0  0  0  0  0  0  0  0  0
    0.4053    0.4935    3.3873 H   0  0  0  0  0  0  0  0  0  0  0  0
    2.2321    1.0485    1.8183 H   0  0  0  0  0  0  0  0  0  0  0  0
    1.7920    1.1353   -1.8976 H   0  0  0  0  0  0  0  0  0  0  0  0
    2.7523    1.7617   -0.5665 H   0  0  0  0  0  0  0  0  0  0  0  0
    2.4356   -1.4275   -1.4049 H   0  0  0  0  0  0  0  0  0  0  0  0
   -0.2816   -0.0361   -1.4997 H   0  0  0  0  0  0  0  0  0  0  0  0
   -3.7089   -1.2607   -1.3590 H   0  0  0  0  0  0  0  0  0  0  0  0
   -2.0146   -1.6350   -1.6966 H   0  0  0  0  0  0  0  0  0  0  0  0
   -2.6249    0.0624   -1.8051 H   0  0  0  0  0  0  0  0  0  0  0  0
  1  2  2  0
  2  3  1  0
  3  4  2  0
  4  5  1  0
  5  6  1  0
  4  7  1  0
  7  8  2  0
  8  9  1  0
  9 10  1  0
  8  1  1  0
  1 11  1  0
  2 12  1  0
  3 13  1  0
  5 14  1  0
  5 15  1  0
  6 16  1  0
  7 17  1  0
 10 18  1  0
 10 19  1  0
 10 20  1  0
M  END
>  <ofe-name>  (192) 
lig_0191

$$$$
lig_0192
     RDKit          3D

 23 23  0  0  0  0  0  0  0  0999 V2000
    0.3212    0.9030    1.6598 C   0  0  0  0  0  0  0  0  0  0  0  0
    1.7129    0.9916    1.6510 C   0  0  0  0  0  0  0  0  0  0  0  0
    2.4284    0.5866    0.5257 C   0  0  0  0  0  0  0  0  0  0  0  0
    1.7552    0.0953   -0.6014 C   0  0  0  0  0  0  0  0  0  0  0  0
    2.5257   -0.3524   -1.8163 C   0  0  0  0  0  0  0  0  0  0  0  0
    2.7401   -2.1524   -1.8589 S   0  0  0  0  0  0  0  0  0  0  0  0
    0.3511    0.0054   -0.5761 C   0  0  0  0  0  0  0  0  0  0  0  0
   -0.3680    0.4074    0.5512 C   0  0  0  0  0  0  0  0  0  0  0  0
   -1.7275    0.3691    0.6958 O   0  0  0  0  0  0  0  0  0  0  0  0
   -2.4809   -0.1786   -0.3844 C   0  0  0  0  0  0  0  0  0  0  0  0
   -3.9477   -0.1505    0.0064 C   0  0  0  0  0  0  0  0  0  0  0  0
   -0.2333    1.2187    2.5402 H   0  0  0  0  0  0  0  0  0  0  0  0
    2.2364    1.3750    2.5228 H   0  0  0  0  0  0  0  0  0  0  0  0
    3.5138    0.6582    0.5345 H   0  0  0  0  0  0  0  0  0  0  0  0
    2.0085   -0.0316   -2.7272 H   0  0  0  0  0  0  0  0  0  0  0  0
    3.5151    0.1176   -1.8349 H   0  0  0  0  0  0  0  0  0  0  0  0
    3.2828   -2.2641   -0.6377 H   0  0  0  0  0  0  0  0  0  0  0  0
   -0.1549   -0.3881   -1.4526 H   0  0  0  0  0  0  0  0  0  0  0  0
   -2.1807   -1.2162   -0.5715 H   0  0  0  0  0  0  0  0  0  0  0  0
   -2.3407    0.4239   -1.2892 H   0  0  0  0  0  0  0  0  0  0  0  0
   -4.2711    0.8744    0.2165 H   0  0  0  0  0  0  0  0  0  0  0  0
   -4.5719   -0.5613   -0.7921 H   0  0  0  0  0  0  0  0  0  0  0  0
   -4.1144   -0.7310    0.9199 H   0  0  0  0  0  0  0  0  0  0  0  0
  1  2  2  0
  2  3  1  0
  3  4  2  0
  4  5  1  0
  5  6  1  0
  4  7  1  0
  7  8  2  0
  8  9  1  0
  9 10  1  0
 10 11  1  0
  8  1  1  0
  1 12  1  0
  2 13  1  0
  3 14  1  0
  5 15  1  0
  5 16  1  0
  6 17  1  0
  7 18  1  0
 10 19  1  0
 10 20  1  0
 11 21  1  0
 11 22  1  0
 11 23  1  0
M  END
>  <ofe-name>  (193) 
lig_0192

$$$$
lig_0193
     RDKit          3D

 23 23  0  0  0  0  0  0  0  0999 V2000
    0.3099    1.3381   -0.8048 C   0  0  0  0  0  0  0  0  0  0  0  0
   -0.9119    1.7297   -1.3587 C   0  0  0  0  0  0  0  0  0  0  0  0
   -2.0340    0.9124   -1.2383 C   0  0  0  0  0  0  0  0  0  0  0  0
   -1.9459   -0.3109   -0.5640 C   0  0  0  0  0  0  0  0  0  0  0  0
   -3.1585   -1.1923   -0.4194 C   0  0  0  0  0  0  0  0  0  0  0  0
   -4.1970   -0.6958    0.9812 S   0  0  0  0  0  0  0  0  0  0  0  0
   -0.7132   -0.6902   -0.0045 C   0  0  0  0  0  0  0  0  0  0  0  0
    0.4211    0.1268   -0.1227 C   0  0  0  0  0  0  0  0  0  0  0  0
    1.6142   -0.3388    0.4689 N   0  0  0  0  0  0  0  0  0  0  0  0
    2.8515    0.2803    0.4701 C   0  0  0  0  0  0  0  0  0  0  0  0
    3.1488    1.3419   -0.0652 O   0  0  0  0  0  0  0  0  0  0  0  0
    3.8908   -0.5268    1.2082 C   0  0  0  0  0  0  0  0  0  0  0  0
    1.1556    2.0084   -0.9221 H   0  0  0  0  0  0  0  0  0  0  0  0
   -0.9844    2.6797   -1.8827 H   0  0  0  0  0  0  0  0  0  0  0  0
   -2.9786    1.2388   -1.6689 H   0  0  0  0  0  0  0  0  0  0  0  0
   -2.8543   -2.2351   -0.2772 H   0  0  0  0  0  0  0  0  0  0  0  0
   -3.7572   -1.1631   -1.3364 H   0  0  0  0  0  0  0  0  0  0  0  0
   -3.2203   -0.6940    1.8995 H   0  0  0  0  0  0  0  0  0  0  0  0
   -0.6469   -1.6366    0.5273 H   0  0  0  0  0  0  0  0  0  0  0  0
    1.5555   -1.2335    0.9375 H   0  0  0  0  0  0  0  0  0  0  0  0
    3.4600   -1.0027    2.0939 H   0  0  0  0  0  0  0  0  0  0  0  0
    4.2974   -1.2908    0.5404 H   0  0  0  0  0  0  0  0  0  0  0  0
    4.6975    0.1343    1.5379 H   0  0  0  0  0  0  0  0  0  0  0  0
  1  2  2  0
  2  3  1  0
  3  4  2  0
  4  5  1  0
  5  6  1  0
  4  7  1  0
  7  8  2  0
  8  9  1  0
  9 10  1  0
 10 11  2  0
 10 12  1  0
  8  1  1  0
  1 13  1  0
  2 14  1  0
  3 15  1  0
  5 16  1  0
  5 17  1  0
  6 18  1  0
  7 19  1  0
  9 20  1  0
 12 21  1  0
 12 22  1  0
 12 23  1  0
M  END
>  <ofe-name>  (194) 
lig_0193

$$$$
lig_0194
     RDKit          3D

 26 27  0  0  0  0  0  0  0  0999 V2000
    0.3716   -1.6750    0.4644 C   0  0  0  0  0  0  0  0  0  0  0  0
    1.7059   -2.0860    0.4566 C   0  0  0  0  0  0  0  0  0  0  0  0
    2.6820   -1.2814   -0.1282 C   0  0  0  0  0  0  0  0  0  0  0  0
    2.3323   -0.0593   -0.7157 C   0  0  0  0  0  0  0  0  0  0  0  0
    3.3841    0.8232   -1.3345 C   0  0  0  0  0  0  0  0  0  0  0  0
    3.9582    2.1040   -0.1870 S   0  0  0  0  0  0  0  0  0  0  0  0
    0.9859    0.3442   -0.6955 C   0  0  0  0  0  0  0  0  0  0  0  0
   -0.0127   -0.4534   -0.1099 C   0  0  0  0  0  0  0  0  0  0  0  0
   -1.4193   -0.0188   -0.0971 C   0  0  0  0  0  0  0  0  0  0  0  0
   -2.1433    0.0549    1.1046 C   0  0  0  0  0  0  0  0  0  0  0  0
   -3.4784    0.4679    1.1178 C   0  0  0  0  0  0  0  0  0  0  0  0
   -4.1130    0.8136   -0.0724 C   0  0  0  0  0  0  0  0  0  0  0  0
   -3.4139    0.7474   -1.2749 C   0  0  0  0  0  0  0  0  0  0  0  0
   -2.0785    0.3353   -1.2862 C   0  0  0  0  0  0  0  0  0  0  0  0
   -0.3760   -2.3234    0.9173 H   0  0  0  0  0  0  0  0  0  0  0  0
    1.9817   -3.0361    0.9070 H   0  0  0  0  0  0  0  0  0  0  0  0
    3.7173   -1.6154   -0.1220 H   0  0  0  0  0  0  0  0  0  0  0  0
    4.2453    0.2233   -1.6488 H   0  0  0  0  0  0  0  0  0  0  0  0
    2.9899    1.3025   -2.2373 H   0  0  0  0  0  0  0  0  0  0  0  0
    4.2611    1.2733    0.8208 H   0  0  0  0  0  0  0  0  0  0  0  0
    0.7134    1.3061   -1.1290 H   0  0  0  0  0  0  0  0  0  0  0  0
   -1.6626   -0.1990    2.0473 H   0  0  0  0  0  0  0  0  0  0  0  0
   -4.0194    0.5222    2.0588 H   0  0  0  0  0  0  0  0  0  0  0  0
   -5.1510    1.1351   -0.0628 H   0  0  0  0  0  0  0  0  0  0  0  0
   -3.9066    1.0144   -2.2061 H   0  0  0  0  0  0  0  0  0  0  0  0
   -1.5539    0.2806   -2.2379 H   0  0  0  0  0  0  0  0  0  0  0  0
  1  2  2  0
  2  3  1  0
  3  4  2  0
  4  5  1  0
  5  6  1  0
  4  7  1  0
  7  8  2  0
  8  9  1  0
  9 10  2  0
 10 11  1  0
 11 12  2  0
 12 13  1  0
 13 14  2  0
  8  1  1  0
 14  9  1  0
  1 15  1  0
  2 16  1  0
  3 17  1  0
  5 18  1  0
  5 19  1  0
  6 20  1  0
  7 21  1  0
 10 22  1  0
 11 23  1  0
 12 24  1  0
 13 25  1  0
 14 26  1  0
M  END
>  <ofe-name>  (195) 
lig_0194

$$$$
lig_0195
     RDKit          3D

 36 36  0  0  0  0  0  0  0  0999 V2000
    1.3154   -1.6459   -0.9204 C   0  0  0  0  0  0  0  0  0  0  0  0
    0.1464   -2.2444   -1.3910 C   0  0  0  0  0  0  0  0  0  0  0  0
   -1.0990   -1.6704   -1.1350 C   0  0  0  0  0  0  0  0  0  0  0  0
   -1.2067   -0.4829   -0.4015 C   0  0  0  0  0  0  0  0  0  0  0  0
   -2.5586    0.1858   -0.0951 C   0  0  0  0  0  0  0  0  0  0  0  0
   -3.7757   -0.5738   -0.6703 C   0  0  0  0  0  0  0  0  0  0  0  0
   -2.5833    1.6077   -0.6965 C   0  0  0  0  0  0  0  0  0  0  0  0
   -2.7591    0.2762    1.4333 C   0  0  0  0  0  0  0  0  0  0  0  0
   -0.0066    0.1004    0.0623 C   0  0  0  0  0  0  0  0  0  0  0  0
    1.2681   -0.4578   -0.1815 C   0  0  0  0  0  0  0  0  0  0  0  0
    2.5310    0.2374    0.3574 C   0  0  0  0  0  0  0  0  0  0  0  0
    3.8455   -0.4964    0.0071 C   0  0  0  0  0  0  0  0  0  0  0  0
    2.6327    1.6607   -0.2329 C   0  0  0  0  0  0  0  0  0  0  0  0
    2.4569    0.3292    1.8970 C   0  0  0  0  0  0  0  0  0  0  0  0
    2.2561   -2.1374   -1.1500 H   0  0  0  0  0  0  0  0  0  0  0  0
    0.2066   -3.1672   -1.9630 H   0  0  0  0  0  0  0  0  0  0  0  0
   -1.9744   -2.1803   -1.5260 H   0  0  0  0  0  0  0  0  0  0  0  0
   -4.7133   -0.0599   -0.4265 H   0  0  0  0  0  0  0  0  0  0  0  0
   -3.8488   -1.5880   -0.2608 H   0  0  0  0  0  0  0  0  0  0  0  0
   -3.7248   -0.6490   -1.7628 H   0  0  0  0  0  0  0  0  0  0  0  0
   -2.4123    1.5809   -1.7793 H   0  0  0  0  0  0  0  0  0  0  0  0
   -3.5510    2.0932   -0.5236 H   0  0  0  0  0  0  0  0  0  0  0  0
   -1.8173    2.2572   -0.2589 H   0  0  0  0  0  0  0  0  0  0  0  0
   -2.7157   -0.7168    1.8962 H   0  0  0  0  0  0  0  0  0  0  0  0
   -3.7328    0.7163    1.6788 H   0  0  0  0  0  0  0  0  0  0  0  0
   -1.9969    0.8974    1.9162 H   0  0  0  0  0  0  0  0  0  0  0  0
   -0.0668    1.0241    0.6347 H   0  0  0  0  0  0  0  0  0  0  0  0
    4.7149    0.0358    0.4116 H   0  0  0  0  0  0  0  0  0  0  0  0
    3.9897   -0.5707   -1.0771 H   0  0  0  0  0  0  0  0  0  0  0  0
    3.8657   -1.5097    0.4249 H   0  0  0  0  0  0  0  0  0  0  0  0
    1.7886    2.2938    0.0616 H   0  0  0  0  0  0  0  0  0  0  0  0
    2.6559    1.6323   -1.3287 H   0  0  0  0  0  0  0  0  0  0  0  0
    3.5447    2.1652    0.1072 H   0  0  0  0  0  0  0  0  0  0  0  0
    1.6091    0.9340    2.2367 H   0  0  0  0  0  0  0  0  0  0  0  0
    2.3525   -0.6654    2.3467 H   0  0  0  0  0  0  0  0  0  0  0  0
    3.3630    0.7884    2.3095 H   0  0  0  0  0  0  0  0  0  0  0  0
  1  2  2  0
  2  3  1  0
  3  4  2  0
  4  5  1  0
  5  6  1  0
  5  7  1  0
  5  8  1  0
  4  9  1  0
  9 10  2  0
 10 11  1  0
 11 12  1  0
 11 13  1  0
 11 14  1  0
 10  1  1  0
  1 15  1  0
  2 16  1  0
  3 17  1  0
  6 18  1  0
  6 19  1  0
  6 20  1  0
  7 21  1  0
  7 22  1  0
  7 23  1  0
  8 24  1  0
  8 25  1  0
  8 26  1  0
  9 27  1  0
 12 28  1  0
 12 29  1  0
 12 30  1  0
 13 31  1  0
 13 32  1  0
 13 33  1  0
 14 34  1  0
 14 35  1  0
 14 36  1  0
M  END
>  <ofe-name>  (196) 
lig_0195

$$$$
lig_0196
     RDKit          3D

 28 28  0  0  0  0  0  0  0  0999 V2000
    2.3448   -1.7072    0.3282 C   0  0  0  0  0  0  0  0  0  0  0  0
    1.2080   -2.5092    0.3591 C   0  0  0  0  0  0  0  0  0  0  0  0
   -0.0605   -1.9329    0.2601 C   0  0  0  0  0  0  0  0  0  0  0  0
   -0.2189   -0.5438    0.1282 C   0  0  0  0  0  0  0  0  0  0  0  0
   -1.6013    0.1254    0.0166 C   0  0  0  0  0  0  0  0  0  0  0  0
   -1.7024    0.8894   -1.3215 C   0  0  0  0  0  0  0  0  0  0  0  0
   -2.7833   -0.8696    0.0633 C   0  0  0  0  0  0  0  0  0  0  0  0
   -1.7946    1.1168    1.1844 C   0  0  0  0  0  0  0  0  0  0  0  0
    0.9539    0.2456    0.0997 C   0  0  0  0  0  0  0  0  0  0  0  0
    2.2270   -0.3256    0.1984 C   0  0  0  0  0  0  0  0  0  0  0  0
    3.4172    0.3490    0.1810 O   0  0  0  0  0  0  0  0  0  0  0  0
    3.3553    1.7631    0.0504 C   0  0  0  0  0  0  0  0  0  0  0  0
    3.3293   -2.1609    0.4056 H   0  0  0  0  0  0  0  0  0  0  0  0
    1.3085   -3.5866    0.4606 H   0  0  0  0  0  0  0  0  0  0  0  0
   -0.9154   -2.6026    0.2894 H   0  0  0  0  0  0  0  0  0  0  0  0
   -2.6920    1.3454   -1.4425 H   0  0  0  0  0  0  0  0  0  0  0  0
   -1.5383    0.2177   -2.1724 H   0  0  0  0  0  0  0  0  0  0  0  0
   -0.9670    1.6981   -1.3945 H   0  0  0  0  0  0  0  0  0  0  0  0
   -2.7374   -1.5899   -0.7617 H   0  0  0  0  0  0  0  0  0  0  0  0
   -3.7436   -0.3465   -0.0195 H   0  0  0  0  0  0  0  0  0  0  0  0
   -2.8025   -1.4295    1.0056 H   0  0  0  0  0  0  0  0  0  0  0  0
   -2.7874    1.5806    1.1490 H   0  0  0  0  0  0  0  0  0  0  0  0
   -1.0612    1.9303    1.1643 H   0  0  0  0  0  0  0  0  0  0  0  0
   -1.6975    0.6102    2.1520 H   0  0  0  0  0  0  0  0  0  0  0  0
    0.8519    1.3209   -0.0016 H   0  0  0  0  0  0  0  0  0  0  0  0
    2.8963    2.0523   -0.9008 H   0  0  0  0  0  0  0  0  0  0  0  0
    4.3811    2.1442    0.0535 H   0  0  0  0  0  0  0  0  0  0  0  0
    2.8301    2.2156    0.8980 H   0  0  0  0  0  0  0  0  0  0  0  0
  1  2  2  0
  2  3  1  0
  3  4  2  0
  4  5  1  0
  5  6  1  0
  5  7  1  0
  5  8  1  0
  4  9  1  0
  9 10  2  0
 10 11  1  0
 11 12  1  0
 10  1  1  0
  1 13  1  0
  2 14  1  0
  3 15  1  0
  6 16  1  0
  6 17  1  0
  6 18  1  0
  7 19  1  0
  7 20  1  0
  7 21  1  0
  8 22  1  0
  8 23  1  0
  8 24  1  0
  9 25  1  0
 12 26  1  0
 12 27  1  0
 12 28  1  0
M  END
>  <ofe-name>  (197) 
lig_0196

$$$$
lig_0197
     RDKit          3D

 31 31  0  0  0  0  0  0  0  0999 V2000
    1.6820   -1.0062    0.9416 C   0  0  0  0  0  0  0  0  0  0  0  0
    0.5745   -1.3539    1.7135 C   0  0  0  0  0  0  0  0  0  0  0  0
   -0.7052   -0.9393    1.3389 C   0  0  0  0  0  0  0  0  0  0  0  0
   -0.9139   -0.1635    0.1845 C   0  0  0  0  0  0  0  0  0  0  0  0
   -2.3341    0.2828   -0.2027 C   0  0  0  0  0  0  0  0  0  0  0  0
   -3.2250   -0.9583   -0.4265 C   0  0  0  0  0  0  0  0  0  0  0  0
   -2.3943    1.1270   -1.4959 C   0  0  0  0  0  0  0  0  0  0  0  0
   -2.9352    1.1415    0.9310 C   0  0  0  0  0  0  0  0  0  0  0  0
    0.2221    0.1720   -0.5740 C   0  0  0  0  0  0  0  0  0  0  0  0
    1.5112   -0.2446   -0.2097 C   0  0  0  0  0  0  0  0  0  0  0  0
    2.4986    0.1746   -1.0581 O   0  0  0  0  0  0  0  0  0  0  0  0
    3.8269   -0.3062   -0.8615 C   0  0  0  0  0  0  0  0  0  0  0  0
    4.5987    0.6085    0.0736 C   0  0  0  0  0  0  0  0  0  0  0  0
    2.6582   -1.3390    1.2743 H   0  0  0  0  0  0  0  0  0  0  0  0
    0.7069   -1.9487    2.6137 H   0  0  0  0  0  0  0  0  0  0  0  0
   -1.5427   -1.2314    1.9687 H   0  0  0  0  0  0  0  0  0  0  0  0
   -4.2356   -0.6686   -0.7375 H   0  0  0  0  0  0  0  0  0  0  0  0
   -2.8090   -1.6070   -1.2066 H   0  0  0  0  0  0  0  0  0  0  0  0
   -3.3305   -1.5621    0.4814 H   0  0  0  0  0  0  0  0  0  0  0  0
   -3.4252    1.4194   -1.7291 H   0  0  0  0  0  0  0  0  0  0  0  0
   -1.8114    2.0507   -1.4023 H   0  0  0  0  0  0  0  0  0  0  0  0
   -2.0149    0.5692   -2.3600 H   0  0  0  0  0  0  0  0  0  0  0  0
   -3.9361    1.5018    0.6657 H   0  0  0  0  0  0  0  0  0  0  0  0
   -3.0345    0.5814    1.8672 H   0  0  0  0  0  0  0  0  0  0  0  0
   -2.3089    2.0177    1.1366 H   0  0  0  0  0  0  0  0  0  0  0  0
    0.1353    0.7702   -1.4774 H   0  0  0  0  0  0  0  0  0  0  0  0
    4.3121   -0.2829   -1.8441 H   0  0  0  0  0  0  0  0  0  0  0  0
    3.8536   -1.3532   -0.5403 H   0  0  0  0  0  0  0  0  0  0  0  0
    4.1507    0.6322    1.0713 H   0  0  0  0  0  0  0  0  0  0  0  0
    4.5884    1.6370   -0.3024 H   0  0  0  0  0  0  0  0  0  0  0  0
    5.6375    0.2789    0.1662 H   0  0  0  0  0  0  0  0  0  0  0  0
  1  2  2  0
  2  3  1  0
  3  4  2  0
  4  5  1  0
  5  6  1  0
  5  7  1  0
  5  8  1  0
  4  9  1  0
  9 10  2  0
 10 11  1  0
 11 12  1  0
 12 13  1  0
 10  1  1  0
  1 14  1  0
  2 15  1  0
  3 16  1  0
  6 17  1  0
  6 18  1  0
  6 19  1  0
  7 20  1  0
  7 21  1  0
  7 22  1  0
  8 23  1  0
  8 24  1  0
  8 25  1  0
  9 26  1  0
 12 27  1  0
 12 28  1  0
 13 29  1  0
 13 30  1  0
 13 31  1  0
M  END
>  <ofe-name>  (198) 
lig_0197

$$$$
lig_0198
     RDKit          3D

 31 31  0  0  0  0  0  0  0  0999 V2000
    1.5628    1.3851   -1.6052 C   0  0  0  0  0  0  0  0  0  0  0  0
    0.3575    1.7183   -2.2197 C   0  0  0  0  0  0  0  0  0  0  0  0
   -0.8449    1.1948   -1.7413 C   0  0  0  0  0  0  0  0  0  0  0  0
   -0.8686    0.3271   -0.6390 C   0  0  0  0  0  0  0  0  0  0  0  0
   -2.1728   -0.2720   -0.0806 C   0  0  0  0  0  0  0  0  0  0  0  0
   -2.1121   -1.8131   -0.1571 C   0  0  0  0  0  0  0  0  0  0  0  0
   -3.4408    0.1723   -0.8448 C   0  0  0  0  0  0  0  0  0  0  0  0
   -2.3548    0.1578    1.3913 C   0  0  0  0  0  0  0  0  0  0  0  0
    0.3695    0.0064   -0.0353 C   0  0  0  0  0  0  0  0  0  0  0  0
    1.5807    0.5250   -0.5049 C   0  0  0  0  0  0  0  0  0  0  0  0
    2.8394    0.2343    0.0624 N   0  0  0  0  0  0  0  0  0  0  0  0
    3.1106   -0.5731    1.1522 C   0  0  0  0  0  0  0  0  0  0  0  0
    2.3025   -1.1763    1.8486 O   0  0  0  0  0  0  0  0  0  0  0  0
    4.5866   -0.6343    1.4596 C   0  0  0  0  0  0  0  0  0  0  0  0
    2.4816    1.8085   -2.0006 H   0  0  0  0  0  0  0  0  0  0  0  0
    0.3515    2.3886   -3.0755 H   0  0  0  0  0  0  0  0  0  0  0  0
   -1.7570    1.4852   -2.2550 H   0  0  0  0  0  0  0  0  0  0  0  0
   -3.0457   -2.2635    0.1999 H   0  0  0  0  0  0  0  0  0  0  0  0
   -1.3033   -2.2279    0.4542 H   0  0  0  0  0  0  0  0  0  0  0  0
   -1.9517   -2.1507   -1.1879 H   0  0  0  0  0  0  0  0  0  0  0  0
   -4.3417   -0.2788   -0.4115 H   0  0  0  0  0  0  0  0  0  0  0  0
   -3.5751    1.2596   -0.8061 H   0  0  0  0  0  0  0  0  0  0  0  0
   -3.4043   -0.1306   -1.8978 H   0  0  0  0  0  0  0  0  0  0  0  0
   -2.3703    1.2503    1.4840 H   0  0  0  0  0  0  0  0  0  0  0  0
   -1.5512   -0.2152    2.0355 H   0  0  0  0  0  0  0  0  0  0  0  0
   -3.2968   -0.2251    1.8012 H   0  0  0  0  0  0  0  0  0  0  0  0
    0.3670   -0.6648    0.8180 H   0  0  0  0  0  0  0  0  0  0  0  0
    3.6330    0.6788   -0.3808 H   0  0  0  0  0  0  0  0  0  0  0  0
    5.1764   -0.6653    0.5390 H   0  0  0  0  0  0  0  0  0  0  0  0
    4.8703    0.2409    2.0500 H   0  0  0  0  0  0  0  0  0  0  0  0
    4.8016   -1.5425    2.0302 H   0  0  0  0  0  0  0  0  0  0  0  0
  1  2  2  0
  2  3  1  0
  3  4  2  0
  4  5  1  0
  5  6  1  0
  5  7  1  0
  5  8  1  0
  4  9  1  0
  9 10  2  0
 10 11  1  0
 11 12  1  0
 12 13  2  0
 12 14  1  0
 10  1  1  0
  1 15  1  0
  2 16  1  0
  3 17  1  0
  6 18  1  0
  6 19  1  0
  6 20  1  0
  7 21  1  0
  7 22  1  0
  7 23  1  0
  8 24  1  0
  8 25  1  0
  8 26  1  0
  9 27  1  0
 11 28  1  0
 14 29  1  0
 14 30  1  0
 14 31  1  0
M  END
>  <ofe-name>  (199) 
lig_0198

$$$$
lig_0199
     RDKit          3D

 34 35  0  0  0  0  0  0  0  0999 V2000
    0.8555    1.9180    1.0445 C   0  0  0  0  0  0  0  0  0  0  0  0
   -0.4282    2.4080    1.2758 C   0  0  0  0  0  0  0  0  0  0  0  0
   -1.5467    1.6801    0.8630 C   0  0  0  0  0  0  0  0  0  0  0  0
   -1.4092    0.4463    0.2098 C   0  0  0  0  0  0  0  0  0  0  0  0
   -2.6154   -0.3838   -0.2633 C   0  0  0  0  0  0  0  0  0  0  0  0
   -3.9825    0.2603    0.0607 C   0  0  0  0  0  0  0  0  0  0  0  0
   -2.5922   -1.7695    0.4177 C   0  0  0  0  0  0  0  0  0  0  0  0
   -2.5496   -0.5687   -1.7947 C   0  0  0  0  0  0  0  0  0  0  0  0
   -0.0961   -0.0248   -0.0105 C   0  0  0  0  0  0  0  0  0  0  0  0
    1.0455    0.6914    0.3974 C   0  0  0  0  0  0  0  0  0  0  0  0
    2.3981    0.1649    0.1508 C   0  0  0  0  0  0  0  0  0  0  0  0
    2.7666   -1.1177    0.5901 C   0  0  0  0  0  0  0  0  0  0  0  0
    4.0503   -1.6185    0.3567 C   0  0  0  0  0  0  0  0  0  0  0  0
    4.9879   -0.8441   -0.3217 C   0  0  0  0  0  0  0  0  0  0  0  0
    4.6434    0.4299   -0.7661 C   0  0  0  0  0  0  0  0  0  0  0  0
    3.3596    0.9295   -0.5309 C   0  0  0  0  0  0  0  0  0  0  0  0
    1.7114    2.4964    1.3851 H   0  0  0  0  0  0  0  0  0  0  0  0
   -0.5598    3.3605    1.7829 H   0  0  0  0  0  0  0  0  0  0  0  0
   -2.5237    2.1083    1.0686 H   0  0  0  0  0  0  0  0  0  0  0  0
   -4.8090   -0.3680   -0.2927 H   0  0  0  0  0  0  0  0  0  0  0  0
   -4.0927    1.2381   -0.4226 H   0  0  0  0  0  0  0  0  0  0  0  0
   -4.1193    0.3951    1.1400 H   0  0  0  0  0  0  0  0  0  0  0  0
   -1.7016   -2.3487    0.1503 H   0  0  0  0  0  0  0  0  0  0  0  0
   -2.6058   -1.6725    1.5098 H   0  0  0  0  0  0  0  0  0  0  0  0
   -3.4627   -2.3683    0.1251 H   0  0  0  0  0  0  0  0  0  0  0  0
   -3.4179   -1.1277   -2.1630 H   0  0  0  0  0  0  0  0  0  0  0  0
   -2.5339    0.3998   -2.3086 H   0  0  0  0  0  0  0  0  0  0  0  0
   -1.6571   -1.1213   -2.1080 H   0  0  0  0  0  0  0  0  0  0  0  0
    0.0520   -0.9727   -0.5260 H   0  0  0  0  0  0  0  0  0  0  0  0
    2.0520   -1.7342    1.1319 H   0  0  0  0  0  0  0  0  0  0  0  0
    4.3163   -2.6120    0.7079 H   0  0  0  0  0  0  0  0  0  0  0  0
    5.9862   -1.2330   -0.5039 H   0  0  0  0  0  0  0  0  0  0  0  0
    5.3715    1.0361   -1.2986 H   0  0  0  0  0  0  0  0  0  0  0  0
    3.1068    1.9229   -0.8962 H   0  0  0  0  0  0  0  0  0  0  0  0
  1  2  2  0
  2  3  1  0
  3  4  2  0
  4  5  1  0
  5  6  1  0
  5  7  1  0
  5  8  1  0
  4  9  1  0
  9 10  2  0
 10 11  1  0
 11 12  2  0
 12 13  1  0
 13 14  2  0
 14 15  1  0
 15 16  2  0
 10  1  1  0
 16 11  1  0
  1 17  1  0
  2 18  1  0
  3 19  1  0
  6 20  1  0
  6 21  1  0
  6 22  1  0
  7 23  1  0
  7 24  1  0
  7 25  1  0
  8 26  1  0
  8 27  1  0
  8 28  1  0
  9 29  1  0
 12 30  1  0
 13 31  1  0
 14 32  1  0
 15 33  1  0
 16 34  1  0
M  END
>  <ofe-name>  (200) 
lig_0199

$$$$
